Standard file
 OpenBabel12142210053D

 66 72  0  0  0  0  0  0  0  0999 V2000
    0.1622   -1.4199    1.8869 O   0  0  0  0  0  0  0  0  0  0  0  0
    0.0000    0.0000    1.6247 P   0  0  0  0  0  0  0  0  0  0  0  0
   -0.4602    0.8757    2.8720 O   0  0  0  0  0  0  0  0  0  0  0  0
   -1.0495    0.3363    0.4721 O   0  0  0  0  0  0  0  0  0  0  0  0
   -1.0439    1.6108   -0.0774 C   0  0  0  0  0  0  0  0  0  0  0  0
   -2.1015    2.4866    0.2528 C   0  0  0  0  0  0  0  0  0  0  0  0
   -3.1525    2.0455    1.1844 C   0  0  0  0  0  0  0  0  0  0  0  0
   -3.8655    0.8668    0.9649 C   0  0  0  0  0  0  0  0  0  0  0  0
   -3.5973    0.1897   -0.2390 O   0  0  0  0  0  0  0  0  0  0  0  0
   -3.6003   -1.1279   -0.2412 C   0  0  0  0  0  0  0  0  0  0  0  0
   -2.8947   -1.5693   -1.2764 F   0  0  0  0  0  0  0  0  0  0  0  0
   -3.1122   -1.6954    0.8645 F   0  0  0  0  0  0  0  0  0  0  0  0
   -4.8398   -1.6553   -0.3902 F   0  0  0  0  0  0  0  0  0  0  0  0
   -4.8281    0.4321    1.8581 C   0  0  0  0  0  0  0  0  0  0  0  0
   -5.0893    1.1826    2.9931 C   0  0  0  0  0  0  0  0  0  0  0  0
   -4.4043    2.3630    3.2209 C   0  0  0  0  0  0  0  0  0  0  0  0
   -3.4462    2.7916    2.3204 C   0  0  0  0  0  0  0  0  0  0  0  0
   -2.1034    3.7519   -0.2775 C   0  0  0  0  0  0  0  0  0  0  0  0
   -1.0632    4.1974   -1.1154 C   0  0  0  0  0  0  0  0  0  0  0  0
    0.0081    3.3189   -1.4263 C   0  0  0  0  0  0  0  0  0  0  0  0
    1.0847    3.8125   -2.1935 C   0  0  0  0  0  0  0  0  0  0  0  0
    1.0752    5.0945   -2.6692 C   0  0  0  0  0  0  0  0  0  0  0  0
   -0.0054    5.9479   -2.4003 C   0  0  0  0  0  0  0  0  0  0  0  0
   -1.0477    5.5102   -1.6330 C   0  0  0  0  0  0  0  0  0  0  0  0
   -0.0182    1.9921   -0.9139 C   0  0  0  0  0  0  0  0  0  0  0  0
    1.0564    1.0179   -1.1938 C   0  0  0  0  0  0  0  0  0  0  0  0
    1.7030    0.4508   -0.1195 C   0  0  0  0  0  0  0  0  0  0  0  0
    1.3154    0.8132    1.1676 O   0  0  0  0  0  0  0  0  0  0  0  0
    2.6975   -0.5356   -0.2732 C   0  0  0  0  0  0  0  0  0  0  0  0
    3.2540   -1.1580    0.9416 C   0  0  0  0  0  0  0  0  0  0  0  0
    3.9197   -0.4040    1.8981 C   0  0  0  0  0  0  0  0  0  0  0  0
    4.3988   -0.9941    3.0543 C   0  0  0  0  0  0  0  0  0  0  0  0
    4.2082   -2.3467    3.2661 C   0  0  0  0  0  0  0  0  0  0  0  0
    3.5384   -3.1179    2.3284 C   0  0  0  0  0  0  0  0  0  0  0  0
    3.0634   -2.5211    1.1757 C   0  0  0  0  0  0  0  0  0  0  0  0
    2.3690   -3.2091    0.1691 O   0  0  0  0  0  0  0  0  0  0  0  0
    1.9408   -4.4360    0.3654 C   0  0  0  0  0  0  0  0  0  0  0  0
    1.2101   -4.6321    1.4664 F   0  0  0  0  0  0  0  0  0  0  0  0
    1.1970   -4.8032   -0.6736 F   0  0  0  0  0  0  0  0  0  0  0  0
    2.9419   -5.3497    0.4417 F   0  0  0  0  0  0  0  0  0  0  0  0
    3.0667   -0.9061   -1.5405 C   0  0  0  0  0  0  0  0  0  0  0  0
    2.4383   -0.3536   -2.6743 C   0  0  0  0  0  0  0  0  0  0  0  0
    1.3994    0.6015   -2.5096 C   0  0  0  0  0  0  0  0  0  0  0  0
    0.7108    1.0573   -3.6535 C   0  0  0  0  0  0  0  0  0  0  0  0
    1.0689    0.6291   -4.9016 C   0  0  0  0  0  0  0  0  0  0  0  0
    2.1263   -0.2775   -5.0687 C   0  0  0  0  0  0  0  0  0  0  0  0
    2.7900   -0.7636   -3.9780 C   0  0  0  0  0  0  0  0  0  0  0  0
   -0.4011    0.3467    3.6663 H   0  0  0  0  0  0  0  0  0  0  0  0
   -5.3756   -0.4796    1.6764 H   0  0  0  0  0  0  0  0  0  0  0  0
   -5.8353    0.8404    3.6934 H   0  0  0  0  0  0  0  0  0  0  0  0
   -4.6136    2.9483    4.1032 H   0  0  0  0  0  0  0  0  0  0  0  0
   -2.8946    3.7017    2.5007 H   0  0  0  0  0  0  0  0  0  0  0  0
   -2.9145    4.4263   -0.0446 H   0  0  0  0  0  0  0  0  0  0  0  0
    1.9241    3.1657   -2.3964 H   0  0  0  0  0  0  0  0  0  0  0  0
    1.9056    5.4590   -3.2553 H   0  0  0  0  0  0  0  0  0  0  0  0
    0.0000    6.9536   -2.7931 H   0  0  0  0  0  0  0  0  0  0  0  0
   -1.8755    6.1649   -1.4025 H   0  0  0  0  0  0  0  0  0  0  0  0
    4.0574    0.6525    1.7248 H   0  0  0  0  0  0  0  0  0  0  0  0
    4.9162   -0.3968    3.7897 H   0  0  0  0  0  0  0  0  0  0  0  0
    4.5746   -2.8147    4.1666 H   0  0  0  0  0  0  0  0  0  0  0  0
    3.3904   -4.1692    2.5170 H   0  0  0  0  0  0  0  0  0  0  0  0
    3.8314   -1.6554   -1.6779 H   0  0  0  0  0  0  0  0  0  0  0  0
   -0.1127    1.7438   -3.5318 H   0  0  0  0  0  0  0  0  0  0  0  0
    0.5327    0.9846   -5.7688 H   0  0  0  0  0  0  0  0  0  0  0  0
    2.3995   -0.5985   -6.0628 H   0  0  0  0  0  0  0  0  0  0  0  0
    3.5887   -1.4815   -4.0935 H   0  0  0  0  0  0  0  0  0  0  0  0
  2  1  2  0  0  0  0
  2  3  1  0  0  0  0
  3 48  1  0  0  0  0
  4  2  1  0  0  0  0
  5  6  1  0  0  0  0
  5  4  1  0  0  0  0
  6  7  1  0  0  0  0
  7 17  1  0  0  0  0
  8  7  2  0  0  0  0
  8 14  1  0  0  0  0
  9  8  1  0  0  0  0
 10  9  1  0  0  0  0
 10 12  1  0  0  0  0
 11 10  1  0  0  0  0
 13 10  1  0  0  0  0
 14 15  2  0  0  0  0
 15 16  1  0  0  0  0
 15 50  1  0  0  0  0
 16 51  1  0  0  0  0
 17 52  1  0  0  0  0
 17 16  2  0  0  0  0
 18 53  1  0  0  0  0
 18  6  2  0  0  0  0
 19 18  1  0  0  0  0
 20 19  1  0  0  0  0
 20 25  1  0  0  0  0
 21 20  2  0  0  0  0
 22 23  2  0  0  0  0
 22 21  1  0  0  0  0
 23 24  1  0  0  0  0
 24 57  1  0  0  0  0
 24 19  2  0  0  0  0
 25  5  2  0  0  0  0
 26 25  1  0  0  0  0
 26 27  1  0  0  0  0
 27 28  1  0  0  0  0
 28  2  1  0  0  0  0
 29 27  2  0  0  0  0
 29 30  1  0  0  0  0
 30 35  2  0  0  0  0
 30 31  1  0  0  0  0
 31 32  2  0  0  0  0
 32 33  1  0  0  0  0
 32 59  1  0  0  0  0
 33 60  1  0  0  0  0
 34 61  1  0  0  0  0
 34 33  2  0  0  0  0
 35 34  1  0  0  0  0
 36 37  1  0  0  0  0
 36 35  1  0  0  0  0
 37 40  1  0  0  0  0
 37 38  1  0  0  0  0
 39 37  1  0  0  0  0
 41 29  1  0  0  0  0
 42 43  1  0  0  0  0
 42 41  2  0  0  0  0
 43 26  2  0  0  0  0
 44 63  1  0  0  0  0
 44 43  1  0  0  0  0
 45 44  2  0  0  0  0
 46 45  1  0  0  0  0
 46 47  2  0  0  0  0
 47 42  1  0  0  0  0
 49 14  1  0  0  0  0
 54 21  1  0  0  0  0
 55 22  1  0  0  0  0
 56 23  1  0  0  0  0
 58 31  1  0  0  0  0
 62 41  1  0  0  0  0
 64 45  1  0  0  0  0
 65 46  1  0  0  0  0
 66 47  1  0  0  0  0
M  END
$$$$
