Standard file
 OpenBabel12142210053D

 66 72  0  0  0  0  0  0  0  0999 V2000
    0.2312    2.4851    1.2196 O   0  0  0  0  0  0  0  0  0  0  0  0
   -0.4549    1.3081    0.7281 P   0  0  0  0  0  0  0  0  0  0  0  0
   -2.0339    1.4031    0.8050 O   0  0  0  0  0  0  0  0  0  0  0  0
    0.0000    0.0000    1.5335 O   0  0  0  0  0  0  0  0  0  0  0  0
   -0.4117   -1.2348    1.0587 C   0  0  0  0  0  0  0  0  0  0  0  0
   -1.4487   -1.9132    1.7423 C   0  0  0  0  0  0  0  0  0  0  0  0
   -2.1187   -1.2852    2.8903 C   0  0  0  0  0  0  0  0  0  0  0  0
   -1.4030   -0.6730    3.9121 C   0  0  0  0  0  0  0  0  0  0  0  0
   -2.0505   -0.0635    4.9711 C   0  0  0  0  0  0  0  0  0  0  0  0
   -3.4402   -0.0499    5.0255 C   0  0  0  0  0  0  0  0  0  0  0  0
   -4.1793    0.5278    6.0093 O   0  0  0  0  0  0  0  0  0  0  0  0
   -3.5094    1.2032    7.0467 C   0  0  0  0  0  0  0  0  0  0  0  0
   -4.1647   -0.6725    4.0065 C   0  0  0  0  0  0  0  0  0  0  0  0
   -3.5126   -1.2808    2.9588 C   0  0  0  0  0  0  0  0  0  0  0  0
   -1.8367   -3.1443    1.2714 C   0  0  0  0  0  0  0  0  0  0  0  0
   -1.2671   -3.7067    0.1134 C   0  0  0  0  0  0  0  0  0  0  0  0
   -0.2633   -2.9926   -0.5932 C   0  0  0  0  0  0  0  0  0  0  0  0
    0.2132   -3.5274   -1.8085 C   0  0  0  0  0  0  0  0  0  0  0  0
   -0.2359   -4.7350   -2.2670 C   0  0  0  0  0  0  0  0  0  0  0  0
   -1.1864   -5.4663   -1.5398 C   0  0  0  0  0  0  0  0  0  0  0  0
   -1.6979   -4.9568   -0.3802 C   0  0  0  0  0  0  0  0  0  0  0  0
    0.1861   -1.7458   -0.0700 C   0  0  0  0  0  0  0  0  0  0  0  0
    1.2337   -0.9626   -0.7574 C   0  0  0  0  0  0  0  0  0  0  0  0
    0.9576    0.3250   -1.1666 C   0  0  0  0  0  0  0  0  0  0  0  0
   -0.2669    0.8880   -0.8256 O   0  0  0  0  0  0  0  0  0  0  0  0
    1.8459    1.0485   -1.9956 C   0  0  0  0  0  0  0  0  0  0  0  0
    1.4914    2.3670   -2.5484 C   0  0  0  0  0  0  0  0  0  0  0  0
    1.0975    3.4256   -1.7412 C   0  0  0  0  0  0  0  0  0  0  0  0
    0.7895    4.6594   -2.2878 C   0  0  0  0  0  0  0  0  0  0  0  0
    0.8664    4.8559   -3.6618 C   0  0  0  0  0  0  0  0  0  0  0  0
    0.5832    6.0241   -4.3036 O   0  0  0  0  0  0  0  0  0  0  0  0
    0.1750    7.1291   -3.5340 C   0  0  0  0  0  0  0  0  0  0  0  0
    1.2649    3.7945   -4.4771 C   0  0  0  0  0  0  0  0  0  0  0  0
    1.5770    2.5721   -3.9260 C   0  0  0  0  0  0  0  0  0  0  0  0
    3.0401    0.4608   -2.3381 C   0  0  0  0  0  0  0  0  0  0  0  0
    3.4199   -0.7995   -1.8405 C   0  0  0  0  0  0  0  0  0  0  0  0
    2.5103   -1.5279   -1.0319 C   0  0  0  0  0  0  0  0  0  0  0  0
    2.9210   -2.7671   -0.4974 C   0  0  0  0  0  0  0  0  0  0  0  0
    4.1576   -3.2759   -0.7834 C   0  0  0  0  0  0  0  0  0  0  0  0
    5.0423   -2.5741   -1.6157 C   0  0  0  0  0  0  0  0  0  0  0  0
    4.6828   -1.3595   -2.1277 C   0  0  0  0  0  0  0  0  0  0  0  0
   -2.5109    0.7092    0.3489 H   0  0  0  0  0  0  0  0  0  0  0  0
   -0.3246   -0.6806    3.8891 H   0  0  0  0  0  0  0  0  0  0  0  0
   -1.4591    0.4003    5.7442 H   0  0  0  0  0  0  0  0  0  0  0  0
   -4.2914    1.6022    7.6908 H   0  0  0  0  0  0  0  0  0  0  0  0
   -2.8768    0.5229    7.6261 H   0  0  0  0  0  0  0  0  0  0  0  0
   -2.9013    2.0276    6.6619 H   0  0  0  0  0  0  0  0  0  0  0  0
   -5.2418   -0.6560    4.0599 H   0  0  0  0  0  0  0  0  0  0  0  0
   -4.0871   -1.7438    2.1691 H   0  0  0  0  0  0  0  0  0  0  0  0
   -2.6051   -3.6947    1.7941 H   0  0  0  0  0  0  0  0  0  0  0  0
    0.9353   -2.9685   -2.3828 H   0  0  0  0  0  0  0  0  0  0  0  0
    0.1395   -5.1313   -3.1986 H   0  0  0  0  0  0  0  0  0  0  0  0
   -1.5199   -6.4239   -1.9109 H   0  0  0  0  0  0  0  0  0  0  0  0
   -2.4487   -5.4987    0.1766 H   0  0  0  0  0  0  0  0  0  0  0  0
    1.0432    3.3000   -0.6725 H   0  0  0  0  0  0  0  0  0  0  0  0
    0.4931    5.4565   -1.6249 H   0  0  0  0  0  0  0  0  0  0  0  0
    0.9518    7.4345   -2.8254 H   0  0  0  0  0  0  0  0  0  0  0  0
    0.0000    7.9351   -4.2452 H   0  0  0  0  0  0  0  0  0  0  0  0
   -0.7510    6.9198   -2.9888 H   0  0  0  0  0  0  0  0  0  0  0  0
    1.3206    3.9575   -5.5421 H   0  0  0  0  0  0  0  0  0  0  0  0
    1.8745    1.7559   -4.5686 H   0  0  0  0  0  0  0  0  0  0  0  0
    3.7250    0.9957   -2.9797 H   0  0  0  0  0  0  0  0  0  0  0  0
    2.2506   -3.3068    0.1541 H   0  0  0  0  0  0  0  0  0  0  0  0
    4.4623   -4.2232   -0.3639 H   0  0  0  0  0  0  0  0  0  0  0  0
    6.0114   -2.9959   -1.8374 H   0  0  0  0  0  0  0  0  0  0  0  0
    5.3637   -0.8008   -2.7534 H   0  0  0  0  0  0  0  0  0  0  0  0
  2  3  1  0  0  0  0
  2  1  2  0  0  0  0
  2  4  1  0  0  0  0
  5  4  1  0  0  0  0
  5  6  1  0  0  0  0
  6  7  1  0  0  0  0
  7 14  2  0  0  0  0
  7  8  1  0  0  0  0
  8  9  2  0  0  0  0
  9 10  1  0  0  0  0
  9 44  1  0  0  0  0
 10 11  1  0  0  0  0
 11 12  1  0  0  0  0
 12 46  1  0  0  0  0
 12 45  1  0  0  0  0
 13 48  1  0  0  0  0
 13 10  2  0  0  0  0
 14 13  1  0  0  0  0
 15  6  2  0  0  0  0
 15 50  1  0  0  0  0
 16 15  1  0  0  0  0
 17 22  1  0  0  0  0
 17 16  2  0  0  0  0
 18 17  1  0  0  0  0
 19 18  2  0  0  0  0
 19 20  1  0  0  0  0
 20 21  2  0  0  0  0
 21 16  1  0  0  0  0
 21 54  1  0  0  0  0
 22  5  2  0  0  0  0
 23 22  1  0  0  0  0
 24 25  1  0  0  0  0
 24 23  2  0  0  0  0
 25  2  1  0  0  0  0
 26 24  1  0  0  0  0
 27 26  1  0  0  0  0
 27 28  1  0  0  0  0
 28 55  1  0  0  0  0
 29 28  2  0  0  0  0
 29 56  1  0  0  0  0
 30 29  1  0  0  0  0
 31 30  1  0  0  0  0
 31 32  1  0  0  0  0
 32 59  1  0  0  0  0
 32 57  1  0  0  0  0
 33 34  1  0  0  0  0
 33 30  2  0  0  0  0
 34 27  2  0  0  0  0
 35 26  2  0  0  0  0
 35 36  1  0  0  0  0
 36 37  1  0  0  0  0
 37 23  1  0  0  0  0
 37 38  2  0  0  0  0
 38 63  1  0  0  0  0
 39 38  1  0  0  0  0
 39 64  1  0  0  0  0
 40 39  2  0  0  0  0
 41 36  2  0  0  0  0
 41 40  1  0  0  0  0
 42  3  1  0  0  0  0
 43  8  1  0  0  0  0
 47 12  1  0  0  0  0
 49 14  1  0  0  0  0
 51 18  1  0  0  0  0
 52 19  1  0  0  0  0
 53 20  1  0  0  0  0
 58 32  1  0  0  0  0
 60 33  1  0  0  0  0
 61 34  1  0  0  0  0
 62 35  1  0  0  0  0
 65 40  1  0  0  0  0
 66 41  1  0  0  0  0
M  END
$$$$
