Standard file
 OpenBabel12142210053D

 66 72  0  0  0  0  0  0  0  0999 V2000
   -0.8846   -0.5494    2.3247 O   0  0  0  0  0  0  0  0  0  0  0  0
    0.0000    0.0000    1.3085 P   0  0  0  0  0  0  0  0  0  0  0  0
    1.2603    0.7955    1.8739 O   0  0  0  0  0  0  0  0  0  0  0  0
   -0.6914    1.0179    0.3031 O   0  0  0  0  0  0  0  0  0  0  0  0
    0.0667    1.4265   -0.7879 C   0  0  0  0  0  0  0  0  0  0  0  0
    0.6084    2.7300   -0.7698 C   0  0  0  0  0  0  0  0  0  0  0  0
    0.3396    3.5919    0.3932 C   0  0  0  0  0  0  0  0  0  0  0  0
    1.3613    4.1332    1.1622 C   0  0  0  0  0  0  0  0  0  0  0  0
    2.6404    3.8967    0.8120 F   0  0  0  0  0  0  0  0  0  0  0  0
    1.1409    4.9050    2.2885 C   0  0  0  0  0  0  0  0  0  0  0  0
   -0.1667    5.1662    2.6864 C   0  0  0  0  0  0  0  0  0  0  0  0
   -0.5123    5.9025    3.7656 O   0  0  0  0  0  0  0  0  0  0  0  0
    0.5099    6.4444    4.5711 C   0  0  0  0  0  0  0  0  0  0  0  0
   -1.2222    4.6527    1.9298 C   0  0  0  0  0  0  0  0  0  0  0  0
   -0.9569    3.8855    0.8184 C   0  0  0  0  0  0  0  0  0  0  0  0
   -1.9932    3.4446    0.0883 F   0  0  0  0  0  0  0  0  0  0  0  0
    1.3870    3.1434   -1.8199 C   0  0  0  0  0  0  0  0  0  0  0  0
    1.6783    2.2793   -2.8931 C   0  0  0  0  0  0  0  0  0  0  0  0
    1.1399    0.9653   -2.9016 C   0  0  0  0  0  0  0  0  0  0  0  0
    1.5142    0.0892   -3.9421 C   0  0  0  0  0  0  0  0  0  0  0  0
    2.3416    0.5090   -4.9468 C   0  0  0  0  0  0  0  0  0  0  0  0
    2.8371    1.8212   -4.9621 C   0  0  0  0  0  0  0  0  0  0  0  0
    2.5173    2.6846   -3.9527 C   0  0  0  0  0  0  0  0  0  0  0  0
    0.2901    0.5611   -1.8343 C   0  0  0  0  0  0  0  0  0  0  0  0
   -0.3213   -0.7825   -1.7796 C   0  0  0  0  0  0  0  0  0  0  0  0
   -0.0822   -1.5603   -0.6696 C   0  0  0  0  0  0  0  0  0  0  0  0
    0.7248   -1.0634    0.3412 O   0  0  0  0  0  0  0  0  0  0  0  0
   -0.6654   -2.8359   -0.5113 C   0  0  0  0  0  0  0  0  0  0  0  0
   -0.4585   -3.5614    0.7520 C   0  0  0  0  0  0  0  0  0  0  0  0
    0.7986   -3.8224    1.2814 C   0  0  0  0  0  0  0  0  0  0  0  0
    1.8938   -3.5011    0.5670 F   0  0  0  0  0  0  0  0  0  0  0  0
    0.9977   -4.4484    2.4987 C   0  0  0  0  0  0  0  0  0  0  0  0
   -0.1053   -4.8363    3.2520 C   0  0  0  0  0  0  0  0  0  0  0  0
   -0.0422   -5.4470    4.4563 O   0  0  0  0  0  0  0  0  0  0  0  0
    1.2246   -5.7014    5.0202 C   0  0  0  0  0  0  0  0  0  0  0  0
   -1.3864   -4.6038    2.7481 C   0  0  0  0  0  0  0  0  0  0  0  0
   -1.5381   -3.9830    1.5301 C   0  0  0  0  0  0  0  0  0  0  0  0
   -2.7852   -3.7778    1.0742 F   0  0  0  0  0  0  0  0  0  0  0  0
   -1.4623   -3.3286   -1.5136 C   0  0  0  0  0  0  0  0  0  0  0  0
   -1.7420   -2.5669   -2.6643 C   0  0  0  0  0  0  0  0  0  0  0  0
   -1.1920   -1.2641   -2.7958 C   0  0  0  0  0  0  0  0  0  0  0  0
   -1.5739   -0.4782   -3.9034 C   0  0  0  0  0  0  0  0  0  0  0  0
   -2.4151   -0.9777   -4.8586 C   0  0  0  0  0  0  0  0  0  0  0  0
   -2.9185   -2.2830   -4.7545 C   0  0  0  0  0  0  0  0  0  0  0  0
   -2.5948   -3.0568   -3.6762 C   0  0  0  0  0  0  0  0  0  0  0  0
    1.4941    0.4609    2.7378 H   0  0  0  0  0  0  0  0  0  0  0  0
    1.9962    5.2767    2.8277 H   0  0  0  0  0  0  0  0  0  0  0  0
    1.1360    7.1425    4.0073 H   0  0  0  0  0  0  0  0  0  0  0  0
    1.1358    5.6591    5.0054 H   0  0  0  0  0  0  0  0  0  0  0  0
    0.0000    6.9815    5.3689 H   0  0  0  0  0  0  0  0  0  0  0  0
   -2.2386    4.8575    2.2212 H   0  0  0  0  0  0  0  0  0  0  0  0
    1.8031    4.1398   -1.8209 H   0  0  0  0  0  0  0  0  0  0  0  0
    1.1476   -0.9256   -3.9308 H   0  0  0  0  0  0  0  0  0  0  0  0
    2.6229   -0.1734   -5.7350 H   0  0  0  0  0  0  0  0  0  0  0  0
    3.4821    2.1374   -5.7684 H   0  0  0  0  0  0  0  0  0  0  0  0
    2.9106    3.6906   -3.9421 H   0  0  0  0  0  0  0  0  0  0  0  0
    2.0106   -4.6150    2.8256 H   0  0  0  0  0  0  0  0  0  0  0  0
    1.7847   -4.7753    5.1805 H   0  0  0  0  0  0  0  0  0  0  0  0
    1.0280   -6.1746    5.9806 H   0  0  0  0  0  0  0  0  0  0  0  0
    1.8117   -6.3812    4.3950 H   0  0  0  0  0  0  0  0  0  0  0  0
   -2.2487   -4.8999    3.3214 H   0  0  0  0  0  0  0  0  0  0  0  0
   -1.9100   -4.3060   -1.4124 H   0  0  0  0  0  0  0  0  0  0  0  0
   -1.2015    0.5313   -3.9844 H   0  0  0  0  0  0  0  0  0  0  0  0
   -2.7017   -0.3641   -5.6997 H   0  0  0  0  0  0  0  0  0  0  0  0
   -3.5744   -2.6633   -5.5235 H   0  0  0  0  0  0  0  0  0  0  0  0
   -2.9968   -4.0539   -3.5722 H   0  0  0  0  0  0  0  0  0  0  0  0
  2  3  1  0  0  0  0
  2  1  2  0  0  0  0
  3 46  1  0  0  0  0
  4  2  1  0  0  0  0
  5  6  1  0  0  0  0
  5  4  1  0  0  0  0
  6  7  1  0  0  0  0
  7 15  2  0  0  0  0
  7  8  1  0  0  0  0
  8 10  2  0  0  0  0
  9  8  1  0  0  0  0
 10 11  1  0  0  0  0
 10 47  1  0  0  0  0
 11 12  1  0  0  0  0
 12 13  1  0  0  0  0
 13 49  1  0  0  0  0
 13 50  1  0  0  0  0
 14 51  1  0  0  0  0
 14 11  2  0  0  0  0
 15 14  1  0  0  0  0
 16 15  1  0  0  0  0
 17  6  2  0  0  0  0
 18 17  1  0  0  0  0
 19 18  1  0  0  0  0
 19 24  1  0  0  0  0
 20 53  1  0  0  0  0
 20 19  2  0  0  0  0
 21 20  1  0  0  0  0
 22 21  2  0  0  0  0
 22 23  1  0  0  0  0
 23 56  1  0  0  0  0
 23 18  2  0  0  0  0
 24 25  1  0  0  0  0
 24  5  2  0  0  0  0
 25 26  1  0  0  0  0
 26 28  2  0  0  0  0
 26 27  1  0  0  0  0
 27  2  1  0  0  0  0
 28 29  1  0  0  0  0
 29 30  2  0  0  0  0
 29 37  1  0  0  0  0
 30 32  1  0  0  0  0
 31 30  1  0  0  0  0
 32 57  1  0  0  0  0
 32 33  2  0  0  0  0
 33 34  1  0  0  0  0
 34 35  1  0  0  0  0
 35 58  1  0  0  0  0
 35 59  1  0  0  0  0
 36 33  1  0  0  0  0
 36 61  1  0  0  0  0
 37 36  2  0  0  0  0
 38 37  1  0  0  0  0
 39 62  1  0  0  0  0
 39 28  1  0  0  0  0
 40 39  2  0  0  0  0
 41 40  1  0  0  0  0
 41 25  2  0  0  0  0
 42 41  1  0  0  0  0
 43 44  1  0  0  0  0
 43 42  2  0  0  0  0
 44 45  2  0  0  0  0
 45 66  1  0  0  0  0
 45 40  1  0  0  0  0
 48 13  1  0  0  0  0
 52 17  1  0  0  0  0
 54 21  1  0  0  0  0
 55 22  1  0  0  0  0
 60 35  1  0  0  0  0
 63 42  1  0  0  0  0
 64 43  1  0  0  0  0
 65 44  1  0  0  0  0
M  END
$$$$
