Standard file
 OpenBabel12142210053D

 98108  0  0  0  0  0  0  0  0999 V2000
   -0.9160   -2.2947   -1.7963 O   0  0  0  0  0  0  0  0  0  0  0  0
   -0.5891   -0.8949   -1.5658 P   0  0  0  0  0  0  0  0  0  0  0  0
   -0.7935    0.0512   -2.8301 O   0  0  0  0  0  0  0  0  0  0  0  0
    0.9194   -0.6866   -1.0908 O   0  0  0  0  0  0  0  0  0  0  0  0
    1.2661    0.5770   -0.6168 C   0  0  0  0  0  0  0  0  0  0  0  0
    2.0069    1.4375   -1.4199 C   0  0  0  0  0  0  0  0  0  0  0  0
    2.3316    1.0859   -2.8134 C   0  0  0  0  0  0  0  0  0  0  0  0
    1.9765    1.9644   -3.8493 C   0  0  0  0  0  0  0  0  0  0  0  0
    1.2842    3.2323   -3.5534 C   0  0  0  0  0  0  0  0  0  0  0  0
    0.1614    3.2567   -2.7610 C   0  0  0  0  0  0  0  0  0  0  0  0
   -0.4212    4.4716   -2.3595 C   0  0  0  0  0  0  0  0  0  0  0  0
   -1.5200    4.5098   -1.4748 C   0  0  0  0  0  0  0  0  0  0  0  0
   -2.0365    5.7042   -1.0586 C   0  0  0  0  0  0  0  0  0  0  0  0
   -1.4871    6.9132   -1.5165 C   0  0  0  0  0  0  0  0  0  0  0  0
   -0.4263    6.9085   -2.3787 C   0  0  0  0  0  0  0  0  0  0  0  0
    0.1381    5.6932   -2.8182 C   0  0  0  0  0  0  0  0  0  0  0  0
    1.2491    5.6429   -3.6861 C   0  0  0  0  0  0  0  0  0  0  0  0
    1.8096    4.4483   -4.0387 C   0  0  0  0  0  0  0  0  0  0  0  0
    2.2908    1.6260   -5.1598 C   0  0  0  0  0  0  0  0  0  0  0  0
    2.9288    0.4339   -5.4524 C   0  0  0  0  0  0  0  0  0  0  0  0
    3.2681   -0.4356   -4.4302 C   0  0  0  0  0  0  0  0  0  0  0  0
    2.9716   -0.1083   -3.1191 C   0  0  0  0  0  0  0  0  0  0  0  0
    2.3236    2.6874   -0.9014 C   0  0  0  0  0  0  0  0  0  0  0  0
    1.8094    3.1347    0.3058 C   0  0  0  0  0  0  0  0  0  0  0  0
    1.0133    2.2855    1.0715 C   0  0  0  0  0  0  0  0  0  0  0  0
    0.3164    2.7913    2.3037 C   0  0  0  0  0  0  0  0  0  0  0  0
    0.1636    4.3079    2.2670 C   0  0  0  0  0  0  0  0  0  0  0  0
    1.5388    4.9313    2.0695 C   0  0  0  0  0  0  0  0  0  0  0  0
    2.0572    4.5714    0.6823 C   0  0  0  0  0  0  0  0  0  0  0  0
    0.8029    0.9727    0.6353 C   0  0  0  0  0  0  0  0  0  0  0  0
    0.0000    0.0000    1.4133 C   0  0  0  0  0  0  0  0  0  0  0  0
   -1.1679   -0.4827    0.8273 C   0  0  0  0  0  0  0  0  0  0  0  0
   -1.4606   -0.0894   -0.4796 O   0  0  0  0  0  0  0  0  0  0  0  0
   -1.9778   -1.4061    1.4781 C   0  0  0  0  0  0  0  0  0  0  0  0
   -3.1091   -2.0501    0.7885 C   0  0  0  0  0  0  0  0  0  0  0  0
   -4.0932   -1.2928    0.1671 C   0  0  0  0  0  0  0  0  0  0  0  0
   -5.1568   -1.9049   -0.4716 C   0  0  0  0  0  0  0  0  0  0  0  0
   -5.2484   -3.2857   -0.4914 C   0  0  0  0  0  0  0  0  0  0  0  0
   -4.2723   -4.0502    0.1220 C   0  0  0  0  0  0  0  0  0  0  0  0
   -3.1923   -3.4509    0.7566 C   0  0  0  0  0  0  0  0  0  0  0  0
   -2.1439   -4.2695    1.3920 C   0  0  0  0  0  0  0  0  0  0  0  0
   -2.4893   -5.2333    2.3623 C   0  0  0  0  0  0  0  0  0  0  0  0
   -1.5220   -5.9071    3.0524 C   0  0  0  0  0  0  0  0  0  0  0  0
   -0.1548   -5.6464    2.8219 C   0  0  0  0  0  0  0  0  0  0  0  0
    0.8709   -6.2640    3.5674 C   0  0  0  0  0  0  0  0  0  0  0  0
    2.1831   -5.9633    3.3308 C   0  0  0  0  0  0  0  0  0  0  0  0
    2.5319   -5.0389    2.3321 C   0  0  0  0  0  0  0  0  0  0  0  0
    1.5626   -4.4328    1.5837 C   0  0  0  0  0  0  0  0  0  0  0  0
    0.1985   -4.7143    1.8107 C   0  0  0  0  0  0  0  0  0  0  0  0
   -0.8187   -4.0567    1.0969 C   0  0  0  0  0  0  0  0  0  0  0  0
   -1.6110   -1.7837    2.7649 C   0  0  0  0  0  0  0  0  0  0  0  0
   -0.4122   -1.3857    3.3363 C   0  0  0  0  0  0  0  0  0  0  0  0
    0.4206   -0.5062    2.6476 C   0  0  0  0  0  0  0  0  0  0  0  0
    1.7915   -0.1794    3.1712 C   0  0  0  0  0  0  0  0  0  0  0  0
    2.2909   -1.2697    4.1125 C   0  0  0  0  0  0  0  0  0  0  0  0
    1.2713   -1.4519    5.2287 C   0  0  0  0  0  0  0  0  0  0  0  0
   -0.0179   -2.0179    4.6448 C   0  0  0  0  0  0  0  0  0  0  0  0
   -1.1996   -0.4512   -3.5340 H   0  0  0  0  0  0  0  0  0  0  0  0
   -0.2811    2.3339   -2.4194 H   0  0  0  0  0  0  0  0  0  0  0  0
   -1.9309    3.5729   -1.1260 H   0  0  0  0  0  0  0  0  0  0  0  0
   -2.8721    5.7304   -0.3735 H   0  0  0  0  0  0  0  0  0  0  0  0
   -1.9115    7.8478   -1.1793 H   0  0  0  0  0  0  0  0  0  0  0  0
    0.0000    7.8373   -2.7312 H   0  0  0  0  0  0  0  0  0  0  0  0
    1.6640    6.5714   -4.0531 H   0  0  0  0  0  0  0  0  0  0  0  0
    2.6831    4.4216   -4.6751 H   0  0  0  0  0  0  0  0  0  0  0  0
    2.0111    2.2993   -5.9578 H   0  0  0  0  0  0  0  0  0  0  0  0
    3.1587    0.1833   -6.4778 H   0  0  0  0  0  0  0  0  0  0  0  0
    3.7649   -1.3681   -4.6529 H   0  0  0  0  0  0  0  0  0  0  0  0
    3.2449   -0.7786   -2.3183 H   0  0  0  0  0  0  0  0  0  0  0  0
    2.9345    3.3559   -1.4902 H   0  0  0  0  0  0  0  0  0  0  0  0
   -0.6571    2.3046    2.3928 H   0  0  0  0  0  0  0  0  0  0  0  0
    0.8931    2.5264    3.1939 H   0  0  0  0  0  0  0  0  0  0  0  0
   -0.2872    4.6553    3.1984 H   0  0  0  0  0  0  0  0  0  0  0  0
   -0.4887    4.5981    1.4407 H   0  0  0  0  0  0  0  0  0  0  0  0
    1.4904    6.0167    2.1725 H   0  0  0  0  0  0  0  0  0  0  0  0
    2.2199    4.5514    2.8344 H   0  0  0  0  0  0  0  0  0  0  0  0
    3.1263    4.7851    0.6078 H   0  0  0  0  0  0  0  0  0  0  0  0
    1.5521    5.1956   -0.0625 H   0  0  0  0  0  0  0  0  0  0  0  0
   -4.0254   -0.2153    0.1967 H   0  0  0  0  0  0  0  0  0  0  0  0
   -5.9150   -1.3035   -0.9518 H   0  0  0  0  0  0  0  0  0  0  0  0
   -6.0778   -3.7677   -0.9882 H   0  0  0  0  0  0  0  0  0  0  0  0
   -4.3314   -5.1290    0.0922 H   0  0  0  0  0  0  0  0  0  0  0  0
   -3.5349   -5.4118    2.5714 H   0  0  0  0  0  0  0  0  0  0  0  0
   -1.7922   -6.6367    3.8034 H   0  0  0  0  0  0  0  0  0  0  0  0
    0.5995   -6.9747    4.3358 H   0  0  0  0  0  0  0  0  0  0  0  0
    2.9635   -6.4349    3.9107 H   0  0  0  0  0  0  0  0  0  0  0  0
    3.5753   -4.8136    2.1630 H   0  0  0  0  0  0  0  0  0  0  0  0
    1.8155   -3.7174    0.8140 H   0  0  0  0  0  0  0  0  0  0  0  0
   -0.5458   -3.3668    0.3132 H   0  0  0  0  0  0  0  0  0  0  0  0
   -2.2465   -2.4682    3.3071 H   0  0  0  0  0  0  0  0  0  0  0  0
    1.7669    0.7646    3.7229 H   0  0  0  0  0  0  0  0  0  0  0  0
    2.4766   -0.0463    2.3314 H   0  0  0  0  0  0  0  0  0  0  0  0
    2.4057   -2.2091    3.5678 H   0  0  0  0  0  0  0  0  0  0  0  0
    3.2632   -0.9880    4.5208 H   0  0  0  0  0  0  0  0  0  0  0  0
    1.0771   -0.4858    5.7003 H   0  0  0  0  0  0  0  0  0  0  0  0
    1.6535   -2.1282    5.9952 H   0  0  0  0  0  0  0  0  0  0  0  0
   -0.8381   -1.9127    5.3592 H   0  0  0  0  0  0  0  0  0  0  0  0
    0.1123   -3.0895    4.4606 H   0  0  0  0  0  0  0  0  0  0  0  0
  1  2  2  0  0  0  0
  2  4  1  0  0  0  0
  2 33  1  0  0  0  0
  3  2  1  0  0  0  0
  4  5  1  0  0  0  0
  5 30  1  0  0  0  0
  6 23  1  0  0  0  0
  6  5  2  0  0  0  0
  7  6  1  0  0  0  0
  8  9  1  0  0  0  0
  8  7  2  0  0  0  0
  9 10  1  0  0  0  0
 10 59  1  0  0  0  0
 10 11  2  0  0  0  0
 11 12  1  0  0  0  0
 12 60  1  0  0  0  0
 12 13  2  0  0  0  0
 13 61  1  0  0  0  0
 14 62  1  0  0  0  0
 14 13  1  0  0  0  0
 15 14  2  0  0  0  0
 16 15  1  0  0  0  0
 16 11  1  0  0  0  0
 17 16  2  0  0  0  0
 18 17  1  0  0  0  0
 18  9  2  0  0  0  0
 19  8  1  0  0  0  0
 20 19  2  0  0  0  0
 20 21  1  0  0  0  0
 21 22  2  0  0  0  0
 22  7  1  0  0  0  0
 22 69  1  0  0  0  0
 23 24  2  0  0  0  0
 24 29  1  0  0  0  0
 24 25  1  0  0  0  0
 25 26  1  0  0  0  0
 26 71  1  0  0  0  0
 26 72  1  0  0  0  0
 27 26  1  0  0  0  0
 27 73  1  0  0  0  0
 28 75  1  0  0  0  0
 28 27  1  0  0  0  0
 28 76  1  0  0  0  0
 29 28  1  0  0  0  0
 30 25  2  0  0  0  0
 30 31  1  0  0  0  0
 31 53  1  0  0  0  0
 32 31  2  0  0  0  0
 32 34  1  0  0  0  0
 33 32  1  0  0  0  0
 34 51  2  0  0  0  0
 35 34  1  0  0  0  0
 36 79  1  0  0  0  0
 36 35  2  0  0  0  0
 37 36  1  0  0  0  0
 38 37  2  0  0  0  0
 38 39  1  0  0  0  0
 39 40  2  0  0  0  0
 40 35  1  0  0  0  0
 40 41  1  0  0  0  0
 41 42  1  0  0  0  0
 42 83  1  0  0  0  0
 42 43  2  0  0  0  0
 43 84  1  0  0  0  0
 44 43  1  0  0  0  0
 44 45  1  0  0  0  0
 45 85  1  0  0  0  0
 46 45  2  0  0  0  0
 46 86  1  0  0  0  0
 47 46  1  0  0  0  0
 48 49  1  0  0  0  0
 48 47  2  0  0  0  0
 49 44  2  0  0  0  0
 50 41  2  0  0  0  0
 50 49  1  0  0  0  0
 51 90  1  0  0  0  0
 51 52  1  0  0  0  0
 52 57  1  0  0  0  0
 53 54  1  0  0  0  0
 53 52  2  0  0  0  0
 54 91  1  0  0  0  0
 54 55  1  0  0  0  0
 55 94  1  0  0  0  0
 55 56  1  0  0  0  0
 56 95  1  0  0  0  0
 56 96  1  0  0  0  0
 57 56  1  0  0  0  0
 57 97  1  0  0  0  0
 58  3  1  0  0  0  0
 63 15  1  0  0  0  0
 64 17  1  0  0  0  0
 65 18  1  0  0  0  0
 66 19  1  0  0  0  0
 67 20  1  0  0  0  0
 68 21  1  0  0  0  0
 70 23  1  0  0  0  0
 74 27  1  0  0  0  0
 77 29  1  0  0  0  0
 78 29  1  0  0  0  0
 80 37  1  0  0  0  0
 81 38  1  0  0  0  0
 82 39  1  0  0  0  0
 87 47  1  0  0  0  0
 88 48  1  0  0  0  0
 89 50  1  0  0  0  0
 92 54  1  0  0  0  0
 93 55  1  0  0  0  0
 98 57  1  0  0  0  0
M  END
$$$$
