Standard file
 OpenBabel12142210053D

112122  0  0  0  0  0  0  0  0999 V2000
   -1.0920   -1.9414    0.0469 O   0  0  0  0  0  0  0  0  0  0  0  0
   -0.9780   -0.4882    0.0548 P   0  0  0  0  0  0  0  0  0  0  0  0
   -2.3065    0.3329    0.2614 O   0  0  0  0  0  0  0  0  0  0  0  0
    0.0000    0.0000    1.2129 O   0  0  0  0  0  0  0  0  0  0  0  0
    0.7948    1.1329    1.0833 C   0  0  0  0  0  0  0  0  0  0  0  0
    0.6507    2.1211    2.0463 C   0  0  0  0  0  0  0  0  0  0  0  0
   -0.5369    1.8007    3.4862 Si  0  0  0  0  0  0  0  0  0  0  0  0
   -0.0225    0.2864    4.5040 C   0  0  0  0  0  0  0  0  0  0  0  0
   -0.6786    0.0259    5.7057 C   0  0  0  0  0  0  0  0  0  0  0  0
   -0.3477   -1.0710    6.4793 C   0  0  0  0  0  0  0  0  0  0  0  0
    0.6557   -1.9313    6.0652 C   0  0  0  0  0  0  0  0  0  0  0  0
    1.3258   -1.6815    4.8801 C   0  0  0  0  0  0  0  0  0  0  0  0
    0.9895   -0.5819    4.1104 C   0  0  0  0  0  0  0  0  0  0  0  0
   -0.3858    3.2828    4.6687 C   0  0  0  0  0  0  0  0  0  0  0  0
    0.8247    3.5283    5.3126 C   0  0  0  0  0  0  0  0  0  0  0  0
    0.9678    4.5838    6.1938 C   0  0  0  0  0  0  0  0  0  0  0  0
   -0.1074    5.4175    6.4542 C   0  0  0  0  0  0  0  0  0  0  0  0
   -1.3209    5.1840    5.8306 C   0  0  0  0  0  0  0  0  0  0  0  0
   -1.4550    4.1260    4.9483 C   0  0  0  0  0  0  0  0  0  0  0  0
   -2.3209    1.6590    2.8755 C   0  0  0  0  0  0  0  0  0  0  0  0
   -3.1123    0.5596    3.1880 C   0  0  0  0  0  0  0  0  0  0  0  0
   -4.4075    0.4575    2.7132 C   0  0  0  0  0  0  0  0  0  0  0  0
   -4.9344    1.4581    1.9147 C   0  0  0  0  0  0  0  0  0  0  0  0
   -4.1593    2.5597    1.5938 C   0  0  0  0  0  0  0  0  0  0  0  0
   -2.8654    2.6557    2.0706 C   0  0  0  0  0  0  0  0  0  0  0  0
    1.4120    3.2749    1.9133 C   0  0  0  0  0  0  0  0  0  0  0  0
    2.2483    3.4545    0.8263 C   0  0  0  0  0  0  0  0  0  0  0  0
    2.4187    2.4307   -0.1046 C   0  0  0  0  0  0  0  0  0  0  0  0
    3.2440    2.7531   -1.3147 C   0  0  0  0  0  0  0  0  0  0  0  0
    4.5693    3.4652   -0.9840 C   0  0  0  0  0  0  0  0  0  0  0  0
    4.4948    4.2823    0.3109 C   0  0  0  0  0  0  0  0  0  0  0  0
    3.0552    4.6997    0.6178 C   0  0  0  0  0  0  0  0  0  0  0  0
    1.7317    1.2245    0.0530 C   0  0  0  0  0  0  0  0  0  0  0  0
    1.9336    0.0719   -0.8554 C   0  0  0  0  0  0  0  0  0  0  0  0
    0.8343   -0.3858   -1.5687 C   0  0  0  0  0  0  0  0  0  0  0  0
   -0.3996    0.1943   -1.2850 O   0  0  0  0  0  0  0  0  0  0  0  0
    0.8955   -1.4491   -2.4490 C   0  0  0  0  0  0  0  0  0  0  0  0
   -0.6672   -2.0618   -3.3316 Si  0  0  0  0  0  0  0  0  0  0  0  0
   -0.5153   -1.5618   -5.1589 C   0  0  0  0  0  0  0  0  0  0  0  0
    0.6547   -1.0356   -5.6958 C   0  0  0  0  0  0  0  0  0  0  0  0
    0.7457   -0.7165   -7.0393 C   0  0  0  0  0  0  0  0  0  0  0  0
   -0.3381   -0.9219   -7.8756 C   0  0  0  0  0  0  0  0  0  0  0  0
   -1.5129   -1.4430   -7.3586 C   0  0  0  0  0  0  0  0  0  0  0  0
   -1.5961   -1.7568   -6.0146 C   0  0  0  0  0  0  0  0  0  0  0  0
   -0.6522   -3.9513   -3.1769 C   0  0  0  0  0  0  0  0  0  0  0  0
   -0.5712   -4.5478   -1.9191 C   0  0  0  0  0  0  0  0  0  0  0  0
   -0.5527   -5.9249   -1.7892 C   0  0  0  0  0  0  0  0  0  0  0  0
   -0.6101   -6.7313   -2.9142 C   0  0  0  0  0  0  0  0  0  0  0  0
   -0.6863   -6.1530   -4.1701 C   0  0  0  0  0  0  0  0  0  0  0  0
   -0.7071   -4.7755   -4.2968 C   0  0  0  0  0  0  0  0  0  0  0  0
   -2.3215   -1.3508   -2.7312 C   0  0  0  0  0  0  0  0  0  0  0  0
   -2.6966   -0.0547   -3.0766 C   0  0  0  0  0  0  0  0  0  0  0  0
   -3.8617    0.5082   -2.5887 C   0  0  0  0  0  0  0  0  0  0  0  0
   -4.6774   -0.2195   -1.7351 C   0  0  0  0  0  0  0  0  0  0  0  0
   -4.3325   -1.5222   -1.4039 C   0  0  0  0  0  0  0  0  0  0  0  0
   -3.1694   -2.0825   -1.9071 C   0  0  0  0  0  0  0  0  0  0  0  0
    2.1316   -2.0635   -2.5987 C   0  0  0  0  0  0  0  0  0  0  0  0
    3.2442   -1.6776   -1.8607 C   0  0  0  0  0  0  0  0  0  0  0  0
    3.1517   -0.6087   -0.9699 C   0  0  0  0  0  0  0  0  0  0  0  0
    4.3065   -0.2264   -0.0846 C   0  0  0  0  0  0  0  0  0  0  0  0
    5.3135   -1.3621    0.0542 C   0  0  0  0  0  0  0  0  0  0  0  0
    5.7127   -1.8379   -1.3363 C   0  0  0  0  0  0  0  0  0  0  0  0
    4.5076   -2.4854   -2.0078 C   0  0  0  0  0  0  0  0  0  0  0  0
   -3.0563   -0.0890   -0.1723 H   0  0  0  0  0  0  0  0  0  0  0  0
   -1.4575    0.6990    6.0370 H   0  0  0  0  0  0  0  0  0  0  0  0
   -0.8714   -1.2570    7.4064 H   0  0  0  0  0  0  0  0  0  0  0  0
    0.9151   -2.7915    6.6656 H   0  0  0  0  0  0  0  0  0  0  0  0
    2.1118   -2.3477    4.5538 H   0  0  0  0  0  0  0  0  0  0  0  0
    1.5167   -0.3994    3.1864 H   0  0  0  0  0  0  0  0  0  0  0  0
    1.6643    2.8755    5.1179 H   0  0  0  0  0  0  0  0  0  0  0  0
    1.9168    4.7575    6.6814 H   0  0  0  0  0  0  0  0  0  0  0  0
    0.0000    6.2427    7.1435 H   0  0  0  0  0  0  0  0  0  0  0  0
   -2.1649    5.8278    6.0344 H   0  0  0  0  0  0  0  0  0  0  0  0
   -2.4069    3.9478    4.4689 H   0  0  0  0  0  0  0  0  0  0  0  0
   -2.7041   -0.2306    3.8013 H   0  0  0  0  0  0  0  0  0  0  0  0
   -5.0069   -0.4067    2.9628 H   0  0  0  0  0  0  0  0  0  0  0  0
   -5.9461    1.3792    1.5422 H   0  0  0  0  0  0  0  0  0  0  0  0
   -4.5647    3.3419    0.9674 H   0  0  0  0  0  0  0  0  0  0  0  0
   -2.2604    3.5126    1.8079 H   0  0  0  0  0  0  0  0  0  0  0  0
    1.3184    4.0548    2.6548 H   0  0  0  0  0  0  0  0  0  0  0  0
    3.4246    1.8643   -1.9181 H   0  0  0  0  0  0  0  0  0  0  0  0
    2.6360    3.4316   -1.9232 H   0  0  0  0  0  0  0  0  0  0  0  0
    4.8239    4.1183   -1.8207 H   0  0  0  0  0  0  0  0  0  0  0  0
    5.3739    2.7333   -0.8952 H   0  0  0  0  0  0  0  0  0  0  0  0
    4.8556    3.6808    1.1480 H   0  0  0  0  0  0  0  0  0  0  0  0
    5.1355    5.1619    0.2339 H   0  0  0  0  0  0  0  0  0  0  0  0
    3.0191    5.3307    1.5067 H   0  0  0  0  0  0  0  0  0  0  0  0
    2.6549    5.2726   -0.2234 H   0  0  0  0  0  0  0  0  0  0  0  0
    1.5044   -0.8716   -5.0483 H   0  0  0  0  0  0  0  0  0  0  0  0
    1.6640   -0.3075   -7.4367 H   0  0  0  0  0  0  0  0  0  0  0  0
   -0.2691   -0.6758   -8.9254 H   0  0  0  0  0  0  0  0  0  0  0  0
   -2.3632   -1.6042   -8.0061 H   0  0  0  0  0  0  0  0  0  0  0  0
   -2.5161   -2.1595   -5.6145 H   0  0  0  0  0  0  0  0  0  0  0  0
   -0.5289   -3.9208   -1.0412 H   0  0  0  0  0  0  0  0  0  0  0  0
   -0.4931   -6.3721   -0.8072 H   0  0  0  0  0  0  0  0  0  0  0  0
   -0.5947   -7.8072   -2.8132 H   0  0  0  0  0  0  0  0  0  0  0  0
   -0.7291   -6.7774   -5.0514 H   0  0  0  0  0  0  0  0  0  0  0  0
   -0.7636   -4.3279   -5.2789 H   0  0  0  0  0  0  0  0  0  0  0  0
   -2.0627    0.5192   -3.7372 H   0  0  0  0  0  0  0  0  0  0  0  0
   -4.1355    1.5149   -2.8687 H   0  0  0  0  0  0  0  0  0  0  0  0
   -5.5844    0.2192   -1.3448 H   0  0  0  0  0  0  0  0  0  0  0  0
   -4.9743   -2.1034   -0.7574 H   0  0  0  0  0  0  0  0  0  0  0  0
   -2.9135   -3.0984   -1.6512 H   0  0  0  0  0  0  0  0  0  0  0  0
    2.2166   -2.9028   -3.2747 H   0  0  0  0  0  0  0  0  0  0  0  0
    3.9243    0.0729    0.8942 H   0  0  0  0  0  0  0  0  0  0  0  0
    4.8187    0.6407   -0.5077 H   0  0  0  0  0  0  0  0  0  0  0  0
    4.8667   -2.1902    0.6076 H   0  0  0  0  0  0  0  0  0  0  0  0
    6.1866   -1.0143    0.6096 H   0  0  0  0  0  0  0  0  0  0  0  0
    6.0539   -0.9839   -1.9259 H   0  0  0  0  0  0  0  0  0  0  0  0
    6.5331   -2.5556   -1.2800 H   0  0  0  0  0  0  0  0  0  0  0  0
    4.7075   -2.6512   -3.0692 H   0  0  0  0  0  0  0  0  0  0  0  0
    4.3305   -3.4678   -1.5584 H   0  0  0  0  0  0  0  0  0  0  0  0
  1  2  2  0  0  0  0
  2  3  1  0  0  0  0
  2  4  1  0  0  0  0
  5  4  1  0  0  0  0
  5  6  1  0  0  0  0
  6  7  1  0  0  0  0
  7  8  1  0  0  0  0
  7 14  1  0  0  0  0
  8  9  1  0  0  0  0
  9 65  1  0  0  0  0
  9 10  2  0  0  0  0
 10 66  1  0  0  0  0
 11 10  1  0  0  0  0
 11 67  1  0  0  0  0
 12 11  2  0  0  0  0
 13  8  2  0  0  0  0
 13 12  1  0  0  0  0
 14 19  2  0  0  0  0
 14 15  1  0  0  0  0
 15 16  2  0  0  0  0
 16 17  1  0  0  0  0
 16 71  1  0  0  0  0
 17 72  1  0  0  0  0
 18 73  1  0  0  0  0
 18 17  2  0  0  0  0
 19 18  1  0  0  0  0
 20 21  1  0  0  0  0
 20  7  1  0  0  0  0
 21 75  1  0  0  0  0
 22 76  1  0  0  0  0
 22 21  2  0  0  0  0
 23 22  1  0  0  0  0
 24 23  2  0  0  0  0
 24 25  1  0  0  0  0
 25 20  2  0  0  0  0
 26  6  2  0  0  0  0
 26 80  1  0  0  0  0
 27 26  1  0  0  0  0
 28 33  1  0  0  0  0
 28 27  2  0  0  0  0
 29 30  1  0  0  0  0
 29 28  1  0  0  0  0
 30 84  1  0  0  0  0
 30 31  1  0  0  0  0
 31 32  1  0  0  0  0
 31 85  1  0  0  0  0
 32 27  1  0  0  0  0
 32 87  1  0  0  0  0
 33  5  2  0  0  0  0
 34 33  1  0  0  0  0
 35 36  1  0  0  0  0
 35 34  2  0  0  0  0
 36  2  1  0  0  0  0
 37 35  1  0  0  0  0
 38 45  1  0  0  0  0
 38 51  1  0  0  0  0
 38 37  1  0  0  0  0
 39 38  1  0  0  0  0
 40 39  1  0  0  0  0
 40 89  1  0  0  0  0
 41 40  2  0  0  0  0
 42 43  2  0  0  0  0
 42 41  1  0  0  0  0
 43 44  1  0  0  0  0
 44 93  1  0  0  0  0
 44 39  2  0  0  0  0
 45 46  1  0  0  0  0
 46 47  2  0  0  0  0
 46 94  1  0  0  0  0
 47 95  1  0  0  0  0
 48 96  1  0  0  0  0
 48 47  1  0  0  0  0
 49 48  2  0  0  0  0
 50 49  1  0  0  0  0
 50 45  2  0  0  0  0
 51 56  1  0  0  0  0
 52 51  2  0  0  0  0
 52 53  1  0  0  0  0
 53 54  2  0  0  0  0
 54 55  1  0  0  0  0
 54101  1  0  0  0  0
 55102  1  0  0  0  0
 56103  1  0  0  0  0
 56 55  2  0  0  0  0
 57 37  2  0  0  0  0
 57 58  1  0  0  0  0
 58 59  2  0  0  0  0
 59 34  1  0  0  0  0
 59 60  1  0  0  0  0
 60 61  1  0  0  0  0
 60105  1  0  0  0  0
 61107  1  0  0  0  0
 61108  1  0  0  0  0
 62110  1  0  0  0  0
 62 61  1  0  0  0  0
 63 58  1  0  0  0  0
 63112  1  0  0  0  0
 63 62  1  0  0  0  0
 64  3  1  0  0  0  0
 68 12  1  0  0  0  0
 69 13  1  0  0  0  0
 70 15  1  0  0  0  0
 74 19  1  0  0  0  0
 77 23  1  0  0  0  0
 78 24  1  0  0  0  0
 79 25  1  0  0  0  0
 81 29  1  0  0  0  0
 82 29  1  0  0  0  0
 83 30  1  0  0  0  0
 86 31  1  0  0  0  0
 88 32  1  0  0  0  0
 90 41  1  0  0  0  0
 91 42  1  0  0  0  0
 92 43  1  0  0  0  0
 97 49  1  0  0  0  0
 98 50  1  0  0  0  0
 99 52  1  0  0  0  0
100 53  1  0  0  0  0
104 57  1  0  0  0  0
106 60  1  0  0  0  0
109 62  1  0  0  0  0
111 63  1  0  0  0  0
M  END
$$$$
