Standard file
 OpenBabel12142210053D

 80 86  0  0  0  0  0  0  0  0999 V2000
    2.9712    1.7226   -1.0757 O   0  0  0  0  0  0  0  0  0  0  0  0
    1.6591    1.1616   -1.3673 P   0  0  0  0  0  0  0  0  0  0  0  0
    1.1361    1.4221   -2.8523 O   0  0  0  0  0  0  0  0  0  0  0  0
    1.5864   -0.4144   -1.1616 O   0  0  0  0  0  0  0  0  0  0  0  0
    0.3141   -0.9900   -1.1714 C   0  0  0  0  0  0  0  0  0  0  0  0
   -0.0821   -1.7244   -2.2828 C   0  0  0  0  0  0  0  0  0  0  0  0
    0.8625   -1.8847   -3.4474 C   0  0  0  0  0  0  0  0  0  0  0  0
    0.5287   -3.0638   -4.3142 C   0  0  0  0  0  0  0  0  0  0  0  0
   -0.1623   -2.9072   -5.5109 C   0  0  0  0  0  0  0  0  0  0  0  0
   -0.4781   -3.9965   -6.2948 C   0  0  0  0  0  0  0  0  0  0  0  0
   -0.1088   -5.2825   -5.8998 C   0  0  0  0  0  0  0  0  0  0  0  0
   -0.4636   -6.2903   -6.7482 O   0  0  0  0  0  0  0  0  0  0  0  0
   -0.0928   -7.6058   -6.4197 C   0  0  0  0  0  0  0  0  0  0  0  0
    0.5768   -5.4495   -4.7022 C   0  0  0  0  0  0  0  0  0  0  0  0
    0.8859   -4.3459   -3.9252 C   0  0  0  0  0  0  0  0  0  0  0  0
   -1.3655   -2.2518   -2.2899 C   0  0  0  0  0  0  0  0  0  0  0  0
   -2.2364   -2.0154   -1.2414 C   0  0  0  0  0  0  0  0  0  0  0  0
   -1.8219   -1.2923   -0.1242 C   0  0  0  0  0  0  0  0  0  0  0  0
   -2.8691   -1.0047    0.9087 C   0  0  0  0  0  0  0  0  0  0  0  0
   -3.6755   -2.2573    1.2945 C   0  0  0  0  0  0  0  0  0  0  0  0
   -3.8898   -3.2195    0.1168 C   0  0  0  0  0  0  0  0  0  0  0  0
   -3.6423   -2.5308   -1.2271 C   0  0  0  0  0  0  0  0  0  0  0  0
   -0.5196   -0.7943   -0.0701 C   0  0  0  0  0  0  0  0  0  0  0  0
    0.0000    0.0000    1.0673 C   0  0  0  0  0  0  0  0  0  0  0  0
    0.4429    1.2970    0.8012 C   0  0  0  0  0  0  0  0  0  0  0  0
    0.4138    1.7379   -0.5237 O   0  0  0  0  0  0  0  0  0  0  0  0
    0.9479    2.1268    1.7924 C   0  0  0  0  0  0  0  0  0  0  0  0
    1.4404    3.5109    1.4675 C   0  0  0  0  0  0  0  0  0  0  0  0
    1.0259    4.5126    2.5084 C   0  0  0  0  0  0  0  0  0  0  0  0
    1.9564    5.2166    3.2535 C   0  0  0  0  0  0  0  0  0  0  0  0
    1.5659    6.1412    4.2103 C   0  0  0  0  0  0  0  0  0  0  0  0
    0.2159    6.3723    4.4384 C   0  0  0  0  0  0  0  0  0  0  0  0
   -0.2870    7.2571    5.3481 O   0  0  0  0  0  0  0  0  0  0  0  0
    0.6147    8.0197    6.1102 C   0  0  0  0  0  0  0  0  0  0  0  0
   -0.7285    5.6605    3.6963 C   0  0  0  0  0  0  0  0  0  0  0  0
   -0.3257    4.7471    2.7479 C   0  0  0  0  0  0  0  0  0  0  0  0
    1.0105    1.6275    3.0873 C   0  0  0  0  0  0  0  0  0  0  0  0
    0.6338    0.3276    3.3685 C   0  0  0  0  0  0  0  0  0  0  0  0
    0.1227   -0.4952    2.3647 C   0  0  0  0  0  0  0  0  0  0  0  0
   -0.1529   -1.9186    2.7450 C   0  0  0  0  0  0  0  0  0  0  0  0
   -0.9536   -2.0354    4.0541 C   0  0  0  0  0  0  0  0  0  0  0  0
   -0.6100   -0.9341    5.0677 C   0  0  0  0  0  0  0  0  0  0  0  0
    0.7261   -0.2635    4.7414 C   0  0  0  0  0  0  0  0  0  0  0  0
    1.6445    2.1334   -3.2388 H   0  0  0  0  0  0  0  0  0  0  0  0
    1.8779   -1.9829   -3.0556 H   0  0  0  0  0  0  0  0  0  0  0  0
    0.8275   -0.9649   -4.0390 H   0  0  0  0  0  0  0  0  0  0  0  0
   -0.4558   -1.9181   -5.8321 H   0  0  0  0  0  0  0  0  0  0  0  0
   -1.0113   -3.8800   -7.2252 H   0  0  0  0  0  0  0  0  0  0  0  0
   -0.4565   -8.2275   -7.2364 H   0  0  0  0  0  0  0  0  0  0  0  0
   -0.5559   -7.9339   -5.4830 H   0  0  0  0  0  0  0  0  0  0  0  0
    0.9945   -7.7107   -6.3432 H   0  0  0  0  0  0  0  0  0  0  0  0
    0.8770   -6.4291   -4.3645 H   0  0  0  0  0  0  0  0  0  0  0  0
    1.4180   -4.4888   -2.9956 H   0  0  0  0  0  0  0  0  0  0  0  0
   -1.6956   -2.8252   -3.1434 H   0  0  0  0  0  0  0  0  0  0  0  0
   -2.4335   -0.5472    1.7958 H   0  0  0  0  0  0  0  0  0  0  0  0
   -3.5568   -0.2737    0.4706 H   0  0  0  0  0  0  0  0  0  0  0  0
   -4.6382   -1.9324    1.6932 H   0  0  0  0  0  0  0  0  0  0  0  0
   -3.1592   -2.7903    2.0936 H   0  0  0  0  0  0  0  0  0  0  0  0
   -3.1941   -4.0575    0.1950 H   0  0  0  0  0  0  0  0  0  0  0  0
   -4.9010   -3.6279    0.1446 H   0  0  0  0  0  0  0  0  0  0  0  0
   -4.3440   -1.7002   -1.3449 H   0  0  0  0  0  0  0  0  0  0  0  0
   -3.8035   -3.2300   -2.0485 H   0  0  0  0  0  0  0  0  0  0  0  0
    1.0440    3.8045    0.4929 H   0  0  0  0  0  0  0  0  0  0  0  0
    2.5297    3.4814    1.3821 H   0  0  0  0  0  0  0  0  0  0  0  0
    3.0112    5.0487    3.0884 H   0  0  0  0  0  0  0  0  0  0  0  0
    2.3240    6.6705    4.7664 H   0  0  0  0  0  0  0  0  0  0  0  0
    1.2488    8.6475    5.4755 H   0  0  0  0  0  0  0  0  0  0  0  0
    0.0000    8.6564    6.7449 H   0  0  0  0  0  0  0  0  0  0  0  0
    1.2473    7.3856    6.7407 H   0  0  0  0  0  0  0  0  0  0  0  0
   -1.7739    5.8487    3.8842 H   0  0  0  0  0  0  0  0  0  0  0  0
   -1.0651    4.2021    2.1793 H   0  0  0  0  0  0  0  0  0  0  0  0
    1.3949    2.2600    3.8740 H   0  0  0  0  0  0  0  0  0  0  0  0
    0.8186   -2.4024    2.8908 H   0  0  0  0  0  0  0  0  0  0  0  0
   -0.6612   -2.4500    1.9416 H   0  0  0  0  0  0  0  0  0  0  0  0
   -0.7564   -3.0178    4.4870 H   0  0  0  0  0  0  0  0  0  0  0  0
   -2.0207   -1.9887    3.8339 H   0  0  0  0  0  0  0  0  0  0  0  0
   -1.3827   -0.1628    5.0495 H   0  0  0  0  0  0  0  0  0  0  0  0
   -0.5821   -1.3482    6.0765 H   0  0  0  0  0  0  0  0  0  0  0  0
    1.5256   -1.0092    4.7723 H   0  0  0  0  0  0  0  0  0  0  0  0
    0.9536    0.5087    5.4772 H   0  0  0  0  0  0  0  0  0  0  0  0
  2  4  1  0  0  0  0
  2  1  2  0  0  0  0
  2 26  1  0  0  0  0
  3  2  1  0  0  0  0
  5  4  1  0  0  0  0
  5 23  1  0  0  0  0
  6  5  2  0  0  0  0
  7 45  1  0  0  0  0
  7  6  1  0  0  0  0
  8 15  1  0  0  0  0
  8  7  1  0  0  0  0
  9  8  2  0  0  0  0
 10 11  2  0  0  0  0
 10  9  1  0  0  0  0
 11 14  1  0  0  0  0
 12 13  1  0  0  0  0
 12 11  1  0  0  0  0
 13 51  1  0  0  0  0
 13 50  1  0  0  0  0
 14 52  1  0  0  0  0
 14 15  2  0  0  0  0
 15 53  1  0  0  0  0
 16  6  1  0  0  0  0
 16 17  2  0  0  0  0
 17 22  1  0  0  0  0
 17 18  1  0  0  0  0
 18 23  2  0  0  0  0
 18 19  1  0  0  0  0
 19 20  1  0  0  0  0
 19 55  1  0  0  0  0
 20 57  1  0  0  0  0
 20 58  1  0  0  0  0
 21 60  1  0  0  0  0
 21 59  1  0  0  0  0
 21 20  1  0  0  0  0
 22 21  1  0  0  0  0
 23 24  1  0  0  0  0
 24 39  1  0  0  0  0
 25 24  2  0  0  0  0
 25 27  1  0  0  0  0
 26 25  1  0  0  0  0
 27 37  2  0  0  0  0
 28 27  1  0  0  0  0
 28 29  1  0  0  0  0
 29 36  2  0  0  0  0
 29 30  1  0  0  0  0
 30 31  2  0  0  0  0
 31 32  1  0  0  0  0
 31 66  1  0  0  0  0
 32 33  1  0  0  0  0
 33 34  1  0  0  0  0
 34 69  1  0  0  0  0
 34 68  1  0  0  0  0
 35 70  1  0  0  0  0
 35 32  2  0  0  0  0
 36 35  1  0  0  0  0
 37 38  1  0  0  0  0
 37 72  1  0  0  0  0
 38 43  1  0  0  0  0
 39 40  1  0  0  0  0
 39 38  2  0  0  0  0
 40 73  1  0  0  0  0
 40 41  1  0  0  0  0
 41 75  1  0  0  0  0
 41 42  1  0  0  0  0
 42 78  1  0  0  0  0
 43 79  1  0  0  0  0
 43 42  1  0  0  0  0
 43 80  1  0  0  0  0
 44  3  1  0  0  0  0
 46  7  1  0  0  0  0
 47  9  1  0  0  0  0
 48 10  1  0  0  0  0
 49 13  1  0  0  0  0
 54 16  1  0  0  0  0
 56 19  1  0  0  0  0
 61 22  1  0  0  0  0
 62 22  1  0  0  0  0
 63 28  1  0  0  0  0
 64 28  1  0  0  0  0
 65 30  1  0  0  0  0
 67 34  1  0  0  0  0
 71 36  1  0  0  0  0
 74 40  1  0  0  0  0
 76 41  1  0  0  0  0
 77 42  1  0  0  0  0
M  END
$$$$
