Standard file
 OpenBabel12142210053D

 76 82  0  0  0  0  0  0  0  0999 V2000
    1.8104    2.1779    0.1320 O   0  0  0  0  0  0  0  0  0  0  0  0
    0.6146    1.5387   -0.3759 P   0  0  0  0  0  0  0  0  0  0  0  0
   -0.2686    2.4553   -1.3091 O   0  0  0  0  0  0  0  0  0  0  0  0
   -0.4822    1.0243    0.6981 O   0  0  0  0  0  0  0  0  0  0  0  0
    0.0000    0.0000    1.5087 C   0  0  0  0  0  0  0  0  0  0  0  0
    0.3866    0.2987    2.8308 C   0  0  0  0  0  0  0  0  0  0  0  0
    0.2297    1.6736    3.3536 C   0  0  0  0  0  0  0  0  0  0  0  0
    1.3465    2.4835    3.5701 C   0  0  0  0  0  0  0  0  0  0  0  0
    2.7254    2.0102    3.2290 C   0  0  0  0  0  0  0  0  0  0  0  0
    1.1546    3.7648    4.0638 C   0  0  0  0  0  0  0  0  0  0  0  0
   -0.1110    4.2552    4.3503 C   0  0  0  0  0  0  0  0  0  0  0  0
   -0.2807    5.6399    4.8997 C   0  0  0  0  0  0  0  0  0  0  0  0
   -1.2051    3.4312    4.1363 C   0  0  0  0  0  0  0  0  0  0  0  0
   -1.0520    2.1461    3.6398 C   0  0  0  0  0  0  0  0  0  0  0  0
   -2.2505    1.2700    3.4203 C   0  0  0  0  0  0  0  0  0  0  0  0
    0.8634   -0.7204    3.6160 C   0  0  0  0  0  0  0  0  0  0  0  0
    1.0304   -2.0254    3.1122 C   0  0  0  0  0  0  0  0  0  0  0  0
    0.6412   -2.3137    1.7781 C   0  0  0  0  0  0  0  0  0  0  0  0
    0.8809   -3.6063    1.2664 C   0  0  0  0  0  0  0  0  0  0  0  0
    1.4364   -4.5775    2.0523 C   0  0  0  0  0  0  0  0  0  0  0  0
    1.7791   -4.3058    3.3851 C   0  0  0  0  0  0  0  0  0  0  0  0
    1.5862   -3.0552    3.9005 C   0  0  0  0  0  0  0  0  0  0  0  0
    0.0677   -1.2756    0.9932 C   0  0  0  0  0  0  0  0  0  0  0  0
   -0.4649   -1.5199   -0.3611 C   0  0  0  0  0  0  0  0  0  0  0  0
   -0.0137   -0.7522   -1.4111 C   0  0  0  0  0  0  0  0  0  0  0  0
    0.9664    0.2032   -1.1994 O   0  0  0  0  0  0  0  0  0  0  0  0
   -0.5055   -0.9134   -2.7254 C   0  0  0  0  0  0  0  0  0  0  0  0
   -0.0177   -0.0059   -3.7885 C   0  0  0  0  0  0  0  0  0  0  0  0
   -0.8387    1.0125   -4.2701 C   0  0  0  0  0  0  0  0  0  0  0  0
   -2.2433    1.2088   -3.7671 C   0  0  0  0  0  0  0  0  0  0  0  0
   -0.3502    1.8702   -5.2466 C   0  0  0  0  0  0  0  0  0  0  0  0
    0.9325    1.7356   -5.7511 C   0  0  0  0  0  0  0  0  0  0  0  0
    1.4434    2.6563   -6.8169 C   0  0  0  0  0  0  0  0  0  0  0  0
    1.7334    0.7125   -5.2612 C   0  0  0  0  0  0  0  0  0  0  0  0
    1.2798   -0.1582   -4.2853 C   0  0  0  0  0  0  0  0  0  0  0  0
    2.1663   -1.2466   -3.7624 C   0  0  0  0  0  0  0  0  0  0  0  0
   -1.4380   -1.8881   -2.9665 C   0  0  0  0  0  0  0  0  0  0  0  0
   -1.9512   -2.6846   -1.9234 C   0  0  0  0  0  0  0  0  0  0  0  0
   -1.4885   -2.4823   -0.5963 C   0  0  0  0  0  0  0  0  0  0  0  0
   -2.0947   -3.2151    0.4460 C   0  0  0  0  0  0  0  0  0  0  0  0
   -3.0653   -4.1409    0.1800 C   0  0  0  0  0  0  0  0  0  0  0  0
   -3.4839   -4.3777   -1.1374 C   0  0  0  0  0  0  0  0  0  0  0  0
   -2.9447   -3.6567   -2.1650 C   0  0  0  0  0  0  0  0  0  0  0  0
   -1.0432    2.0425   -1.6957 H   0  0  0  0  0  0  0  0  0  0  0  0
    2.8989    0.9934    3.5756 H   0  0  0  0  0  0  0  0  0  0  0  0
    3.4741    2.6675    3.6648 H   0  0  0  0  0  0  0  0  0  0  0  0
    2.8416    2.0215    2.1454 H   0  0  0  0  0  0  0  0  0  0  0  0
    2.0145    4.3998    4.2237 H   0  0  0  0  0  0  0  0  0  0  0  0
    0.0000    5.6620    5.9533 H   0  0  0  0  0  0  0  0  0  0  0  0
    0.3580    6.3435    4.3695 H   0  0  0  0  0  0  0  0  0  0  0  0
   -1.3135    5.9691    4.8152 H   0  0  0  0  0  0  0  0  0  0  0  0
   -2.1985    3.7961    4.3590 H   0  0  0  0  0  0  0  0  0  0  0  0
   -2.1055    0.2935    3.8820 H   0  0  0  0  0  0  0  0  0  0  0  0
   -3.1432    1.7278    3.8399 H   0  0  0  0  0  0  0  0  0  0  0  0
   -2.4109    1.1139    2.3540 H   0  0  0  0  0  0  0  0  0  0  0  0
    1.1347   -0.5172    4.6422 H   0  0  0  0  0  0  0  0  0  0  0  0
    0.6304   -3.8190    0.2381 H   0  0  0  0  0  0  0  0  0  0  0  0
    1.6186   -5.5619    1.6475 H   0  0  0  0  0  0  0  0  0  0  0  0
    2.2075   -5.0882    3.9939 H   0  0  0  0  0  0  0  0  0  0  0  0
    1.8670   -2.8298    4.9192 H   0  0  0  0  0  0  0  0  0  0  0  0
   -2.4249    0.6746   -2.8356 H   0  0  0  0  0  0  0  0  0  0  0  0
   -2.9543    0.8319   -4.5036 H   0  0  0  0  0  0  0  0  0  0  0  0
   -2.4518    2.2688   -3.6266 H   0  0  0  0  0  0  0  0  0  0  0  0
   -0.9874    2.6625   -5.6134 H   0  0  0  0  0  0  0  0  0  0  0  0
    1.3353    2.1890   -7.7964 H   0  0  0  0  0  0  0  0  0  0  0  0
    2.4981    2.8737   -6.6642 H   0  0  0  0  0  0  0  0  0  0  0  0
    0.8876    3.5906   -6.8233 H   0  0  0  0  0  0  0  0  0  0  0  0
    2.7367    0.5967   -5.6460 H   0  0  0  0  0  0  0  0  0  0  0  0
    1.6302   -2.1933   -3.7082 H   0  0  0  0  0  0  0  0  0  0  0  0
    3.0397   -1.3700   -4.3979 H   0  0  0  0  0  0  0  0  0  0  0  0
    2.5039   -0.9941   -2.7576 H   0  0  0  0  0  0  0  0  0  0  0  0
   -1.8077   -2.0343   -3.9711 H   0  0  0  0  0  0  0  0  0  0  0  0
   -1.7888   -3.0321    1.4643 H   0  0  0  0  0  0  0  0  0  0  0  0
   -3.5189   -4.6943    0.9887 H   0  0  0  0  0  0  0  0  0  0  0  0
   -4.2435   -5.1208   -1.3296 H   0  0  0  0  0  0  0  0  0  0  0  0
   -3.2766   -3.8121   -3.1815 H   0  0  0  0  0  0  0  0  0  0  0  0
  2  1  2  0  0  0  0
  2  4  1  0  0  0  0
  3  2  1  0  0  0  0
  4  5  1  0  0  0  0
  5  6  1  0  0  0  0
  6  7  1  0  0  0  0
  6 16  2  0  0  0  0
  7  8  2  0  0  0  0
  7 14  1  0  0  0  0
  8 10  1  0  0  0  0
  9  8  1  0  0  0  0
  9 45  1  0  0  0  0
  9 46  1  0  0  0  0
 10 48  1  0  0  0  0
 10 11  2  0  0  0  0
 11 12  1  0  0  0  0
 12 49  1  0  0  0  0
 13 11  1  0  0  0  0
 13 52  1  0  0  0  0
 14 13  2  0  0  0  0
 15 14  1  0  0  0  0
 15 54  1  0  0  0  0
 15 53  1  0  0  0  0
 16 56  1  0  0  0  0
 17 16  1  0  0  0  0
 17 22  1  0  0  0  0
 18 17  2  0  0  0  0
 19 18  1  0  0  0  0
 19 20  2  0  0  0  0
 20 21  1  0  0  0  0
 21 22  2  0  0  0  0
 21 59  1  0  0  0  0
 22 60  1  0  0  0  0
 23  5  2  0  0  0  0
 23 18  1  0  0  0  0
 24 23  1  0  0  0  0
 25 26  1  0  0  0  0
 25 24  2  0  0  0  0
 26  2  1  0  0  0  0
 27 25  1  0  0  0  0
 28 27  1  0  0  0  0
 29 28  1  0  0  0  0
 29 30  1  0  0  0  0
 30 63  1  0  0  0  0
 30 61  1  0  0  0  0
 31 29  2  0  0  0  0
 32 34  2  0  0  0  0
 32 31  1  0  0  0  0
 33 66  1  0  0  0  0
 33 32  1  0  0  0  0
 34 35  1  0  0  0  0
 35 28  2  0  0  0  0
 35 36  1  0  0  0  0
 36 69  1  0  0  0  0
 36 71  1  0  0  0  0
 37 27  2  0  0  0  0
 37 38  1  0  0  0  0
 38 39  1  0  0  0  0
 39 24  1  0  0  0  0
 39 40  2  0  0  0  0
 40 73  1  0  0  0  0
 41 40  1  0  0  0  0
 41 74  1  0  0  0  0
 42 41  2  0  0  0  0
 43 38  2  0  0  0  0
 43 42  1  0  0  0  0
 44  3  1  0  0  0  0
 47  9  1  0  0  0  0
 50 12  1  0  0  0  0
 51 12  1  0  0  0  0
 55 15  1  0  0  0  0
 57 19  1  0  0  0  0
 58 20  1  0  0  0  0
 62 30  1  0  0  0  0
 64 31  1  0  0  0  0
 65 33  1  0  0  0  0
 67 33  1  0  0  0  0
 68 34  1  0  0  0  0
 70 36  1  0  0  0  0
 72 37  1  0  0  0  0
 75 42  1  0  0  0  0
 76 43  1  0  0  0  0
M  END
$$$$
