Standard file
 OpenBabel12142210053D

106112  0  0  0  0  0  0  0  0999 V2000
   -1.8683   -1.4192    0.2149 O   0  0  0  0  0  0  0  0  0  0  0  0
   -1.1053   -0.1920    0.0421 P   0  0  0  0  0  0  0  0  0  0  0  0
   -1.9934    1.1362    0.0534 O   0  0  0  0  0  0  0  0  0  0  0  0
    0.0000    0.0000    1.1603 O   0  0  0  0  0  0  0  0  0  0  0  0
    0.8493    1.1012    1.0888 C   0  0  0  0  0  0  0  0  0  0  0  0
    0.8007    2.0654    2.1239 C   0  0  0  0  0  0  0  0  0  0  0  0
   -0.0417    1.8838    3.3200 C   0  0  0  0  0  0  0  0  0  0  0  0
    0.5335    2.0630    4.5770 C   0  0  0  0  0  0  0  0  0  0  0  0
   -0.2181    1.9082    5.7289 C   0  0  0  0  0  0  0  0  0  0  0  0
    0.3618    2.1049    7.1224 C   0  0  0  0  0  0  0  0  0  0  0  0
   -0.4152    3.2217    7.8340 C   0  0  0  0  0  0  0  0  0  0  0  0
    1.8410    2.4993    7.0960 C   0  0  0  0  0  0  0  0  0  0  0  0
    0.2314    0.7949    7.9117 C   0  0  0  0  0  0  0  0  0  0  0  0
   -1.5612    1.5570    5.5991 C   0  0  0  0  0  0  0  0  0  0  0  0
   -2.1600    1.3724    4.3633 C   0  0  0  0  0  0  0  0  0  0  0  0
   -3.6155    0.9649    4.1951 C   0  0  0  0  0  0  0  0  0  0  0  0
   -4.3333    1.9912    3.3074 C   0  0  0  0  0  0  0  0  0  0  0  0
   -4.3674    0.8840    5.5269 C   0  0  0  0  0  0  0  0  0  0  0  0
   -3.6571   -0.4192    3.5319 C   0  0  0  0  0  0  0  0  0  0  0  0
   -1.3814    1.5496    3.2253 C   0  0  0  0  0  0  0  0  0  0  0  0
    1.6296    3.1573    2.0286 C   0  0  0  0  0  0  0  0  0  0  0  0
    2.4734    3.3575    0.9203 C   0  0  0  0  0  0  0  0  0  0  0  0
    2.5511    2.3566   -0.0814 C   0  0  0  0  0  0  0  0  0  0  0  0
    3.3662    2.5914   -1.2081 C   0  0  0  0  0  0  0  0  0  0  0  0
    4.0985    3.7416   -1.3148 C   0  0  0  0  0  0  0  0  0  0  0  0
    4.0549    4.7116   -0.3029 C   0  0  0  0  0  0  0  0  0  0  0  0
    3.2534    4.5256    0.7876 C   0  0  0  0  0  0  0  0  0  0  0  0
    1.7661    1.1755    0.0648 C   0  0  0  0  0  0  0  0  0  0  0  0
    1.9623    0.0389   -0.8588 C   0  0  0  0  0  0  0  0  0  0  0  0
    0.9061   -0.4950   -1.5602 C   0  0  0  0  0  0  0  0  0  0  0  0
   -0.3658    0.0163   -1.3713 O   0  0  0  0  0  0  0  0  0  0  0  0
    1.0879   -1.4860   -2.5519 C   0  0  0  0  0  0  0  0  0  0  0  0
   -0.0704   -1.9909   -3.3135 C   0  0  0  0  0  0  0  0  0  0  0  0
   -1.1034   -2.6357   -2.6499 C   0  0  0  0  0  0  0  0  0  0  0  0
   -2.2073   -3.1010   -3.3509 C   0  0  0  0  0  0  0  0  0  0  0  0
   -3.3792   -3.7668   -2.6461 C   0  0  0  0  0  0  0  0  0  0  0  0
   -3.0029   -4.2671   -1.2484 C   0  0  0  0  0  0  0  0  0  0  0  0
   -3.8945   -4.9643   -3.4561 C   0  0  0  0  0  0  0  0  0  0  0  0
   -4.4896   -2.7166   -2.5065 C   0  0  0  0  0  0  0  0  0  0  0  0
   -2.2445   -2.8874   -4.7234 C   0  0  0  0  0  0  0  0  0  0  0  0
   -1.2121   -2.2635   -5.4163 C   0  0  0  0  0  0  0  0  0  0  0  0
   -1.3313   -2.0850   -6.9231 C   0  0  0  0  0  0  0  0  0  0  0  0
   -1.4863   -3.4624   -7.5827 C   0  0  0  0  0  0  0  0  0  0  0  0
   -2.5620   -1.2198   -7.2289 C   0  0  0  0  0  0  0  0  0  0  0  0
   -0.1052   -1.4013   -7.5342 C   0  0  0  0  0  0  0  0  0  0  0  0
   -0.1157   -1.8216   -4.6915 C   0  0  0  0  0  0  0  0  0  0  0  0
    2.3576   -1.9369   -2.8045 C   0  0  0  0  0  0  0  0  0  0  0  0
    3.4586   -1.4999   -2.0422 C   0  0  0  0  0  0  0  0  0  0  0  0
    3.2639   -0.5168   -1.0375 C   0  0  0  0  0  0  0  0  0  0  0  0
    4.3624   -0.1541   -0.2303 C   0  0  0  0  0  0  0  0  0  0  0  0
    5.5991   -0.6984   -0.4423 C   0  0  0  0  0  0  0  0  0  0  0  0
    5.8013   -1.6314   -1.4693 C   0  0  0  0  0  0  0  0  0  0  0  0
    4.7502   -2.0289   -2.2464 C   0  0  0  0  0  0  0  0  0  0  0  0
   -2.8104    0.9772   -0.4162 H   0  0  0  0  0  0  0  0  0  0  0  0
    1.5822    2.3063    4.6258 H   0  0  0  0  0  0  0  0  0  0  0  0
    0.0000    3.3952    8.8247 H   0  0  0  0  0  0  0  0  0  0  0  0
   -1.4651    2.9663    7.9465 H   0  0  0  0  0  0  0  0  0  0  0  0
   -0.3490    4.1467    7.2648 H   0  0  0  0  0  0  0  0  0  0  0  0
    2.1985    2.6337    8.1151 H   0  0  0  0  0  0  0  0  0  0  0  0
    2.4446    1.7250    6.6284 H   0  0  0  0  0  0  0  0  0  0  0  0
    1.9868    3.4363    6.5634 H   0  0  0  0  0  0  0  0  0  0  0  0
    0.6638    0.9099    8.9036 H   0  0  0  0  0  0  0  0  0  0  0  0
   -0.8084    0.5023    8.0266 H   0  0  0  0  0  0  0  0  0  0  0  0
    0.7558   -0.0070    7.3964 H   0  0  0  0  0  0  0  0  0  0  0  0
   -2.1456    1.4254    6.4937 H   0  0  0  0  0  0  0  0  0  0  0  0
   -3.8883    2.0401    2.3181 H   0  0  0  0  0  0  0  0  0  0  0  0
   -4.2794    2.9810    3.7567 H   0  0  0  0  0  0  0  0  0  0  0  0
   -5.3811    1.7198    3.1954 H   0  0  0  0  0  0  0  0  0  0  0  0
   -4.3616    1.8439    6.0388 H   0  0  0  0  0  0  0  0  0  0  0  0
   -3.9338    0.1283    6.1775 H   0  0  0  0  0  0  0  0  0  0  0  0
   -5.4035    0.6081    5.3413 H   0  0  0  0  0  0  0  0  0  0  0  0
   -4.6880   -0.7289    3.3725 H   0  0  0  0  0  0  0  0  0  0  0  0
   -3.1453   -0.4215    2.5729 H   0  0  0  0  0  0  0  0  0  0  0  0
   -3.1715   -1.1544    4.1701 H   0  0  0  0  0  0  0  0  0  0  0  0
   -1.8216    1.4413    2.2514 H   0  0  0  0  0  0  0  0  0  0  0  0
    1.6117    3.9042    2.8086 H   0  0  0  0  0  0  0  0  0  0  0  0
    3.3949    1.8584   -1.9995 H   0  0  0  0  0  0  0  0  0  0  0  0
    4.7133    3.9110   -2.1862 H   0  0  0  0  0  0  0  0  0  0  0  0
    4.6481    5.6089   -0.3996 H   0  0  0  0  0  0  0  0  0  0  0  0
    3.1948    5.2749    1.5638 H   0  0  0  0  0  0  0  0  0  0  0  0
   -1.0291   -2.7640   -1.5848 H   0  0  0  0  0  0  0  0  0  0  0  0
   -3.8472   -4.7979   -0.8125 H   0  0  0  0  0  0  0  0  0  0  0  0
   -2.7521   -3.4430   -0.5877 H   0  0  0  0  0  0  0  0  0  0  0  0
   -2.1596   -4.9523   -1.3002 H   0  0  0  0  0  0  0  0  0  0  0  0
   -4.3563   -4.6558   -4.3900 H   0  0  0  0  0  0  0  0  0  0  0  0
   -4.6446   -5.5033   -2.8813 H   0  0  0  0  0  0  0  0  0  0  0  0
   -3.0787   -5.6473   -3.6821 H   0  0  0  0  0  0  0  0  0  0  0  0
   -5.3666   -3.1551   -2.0353 H   0  0  0  0  0  0  0  0  0  0  0  0
   -4.7773   -2.3218   -3.4788 H   0  0  0  0  0  0  0  0  0  0  0  0
   -4.1378   -1.8943   -1.8880 H   0  0  0  0  0  0  0  0  0  0  0  0
   -3.1090   -3.2171   -5.2766 H   0  0  0  0  0  0  0  0  0  0  0  0
   -1.5501   -3.3560   -8.6638 H   0  0  0  0  0  0  0  0  0  0  0  0
   -2.3828   -3.9698   -7.2382 H   0  0  0  0  0  0  0  0  0  0  0  0
   -0.6291   -4.0896   -7.3471 H   0  0  0  0  0  0  0  0  0  0  0  0
   -3.4751   -1.6897   -6.8746 H   0  0  0  0  0  0  0  0  0  0  0  0
   -2.6543   -1.0634   -8.3018 H   0  0  0  0  0  0  0  0  0  0  0  0
   -2.4682   -0.2500   -6.7448 H   0  0  0  0  0  0  0  0  0  0  0  0
    0.7955   -1.9848   -7.3588 H   0  0  0  0  0  0  0  0  0  0  0  0
    0.0312   -0.4032   -7.1247 H   0  0  0  0  0  0  0  0  0  0  0  0
   -0.2407   -1.3072   -8.6100 H   0  0  0  0  0  0  0  0  0  0  0  0
    0.7103   -1.3208   -5.1700 H   0  0  0  0  0  0  0  0  0  0  0  0
    2.5143   -2.6744   -3.5783 H   0  0  0  0  0  0  0  0  0  0  0  0
    4.2163    0.5512    0.5732 H   0  0  0  0  0  0  0  0  0  0  0  0
    6.4287   -0.4139    0.1877 H   0  0  0  0  0  0  0  0  0  0  0  0
    6.7870   -2.0426   -1.6294 H   0  0  0  0  0  0  0  0  0  0  0  0
    4.8870   -2.7662   -3.0242 H   0  0  0  0  0  0  0  0  0  0  0  0
  2  3  1  0  0  0  0
  2  1  2  0  0  0  0
  2  4  1  0  0  0  0
  5  4  1  0  0  0  0
  5  6  1  0  0  0  0
  6  7  1  0  0  0  0
  7  8  1  0  0  0  0
  8 55  1  0  0  0  0
  8  9  2  0  0  0  0
  9 10  1  0  0  0  0
 10 11  1  0  0  0  0
 10 13  1  0  0  0  0
 11 57  1  0  0  0  0
 11 56  1  0  0  0  0
 12 10  1  0  0  0  0
 12 59  1  0  0  0  0
 13 63  1  0  0  0  0
 13 62  1  0  0  0  0
 14  9  1  0  0  0  0
 14 65  1  0  0  0  0
 15 14  2  0  0  0  0
 16 15  1  0  0  0  0
 16 18  1  0  0  0  0
 17 67  1  0  0  0  0
 17 16  1  0  0  0  0
 18 69  1  0  0  0  0
 18 70  1  0  0  0  0
 19 74  1  0  0  0  0
 19 16  1  0  0  0  0
 20  7  2  0  0  0  0
 20 15  1  0  0  0  0
 21  6  2  0  0  0  0
 21 76  1  0  0  0  0
 22 21  1  0  0  0  0
 23 28  1  0  0  0  0
 23 22  2  0  0  0  0
 24 23  1  0  0  0  0
 25 24  2  0  0  0  0
 25 26  1  0  0  0  0
 26 27  2  0  0  0  0
 27 22  1  0  0  0  0
 27 80  1  0  0  0  0
 28  5  2  0  0  0  0
 29 28  1  0  0  0  0
 30 31  1  0  0  0  0
 30 29  2  0  0  0  0
 31  2  1  0  0  0  0
 32 30  1  0  0  0  0
 33 34  1  0  0  0  0
 33 32  1  0  0  0  0
 34 81  1  0  0  0  0
 35 34  2  0  0  0  0
 35 36  1  0  0  0  0
 36 39  1  0  0  0  0
 36 37  1  0  0  0  0
 37 82  1  0  0  0  0
 37 83  1  0  0  0  0
 38 86  1  0  0  0  0
 38 36  1  0  0  0  0
 39 88  1  0  0  0  0
 39 90  1  0  0  0  0
 40 35  1  0  0  0  0
 41 40  2  0  0  0  0
 41 46  1  0  0  0  0
 42 41  1  0  0  0  0
 43 94  1  0  0  0  0
 43 93  1  0  0  0  0
 43 42  1  0  0  0  0
 44 42  1  0  0  0  0
 44 95  1  0  0  0  0
 44 97  1  0  0  0  0
 45 98  1  0  0  0  0
 45 99  1  0  0  0  0
 45 42  1  0  0  0  0
 46 33  2  0  0  0  0
 47 32  2  0  0  0  0
 47 48  1  0  0  0  0
 48 49  1  0  0  0  0
 49 29  1  0  0  0  0
 49 50  2  0  0  0  0
 50103  1  0  0  0  0
 51 50  1  0  0  0  0
 51104  1  0  0  0  0
 52 51  2  0  0  0  0
 53 48  2  0  0  0  0
 53 52  1  0  0  0  0
 54  3  1  0  0  0  0
 58 11  1  0  0  0  0
 60 12  1  0  0  0  0
 61 12  1  0  0  0  0
 64 13  1  0  0  0  0
 66 17  1  0  0  0  0
 68 17  1  0  0  0  0
 71 18  1  0  0  0  0
 72 19  1  0  0  0  0
 73 19  1  0  0  0  0
 75 20  1  0  0  0  0
 77 24  1  0  0  0  0
 78 25  1  0  0  0  0
 79 26  1  0  0  0  0
 84 37  1  0  0  0  0
 85 38  1  0  0  0  0
 87 38  1  0  0  0  0
 89 39  1  0  0  0  0
 91 40  1  0  0  0  0
 92 43  1  0  0  0  0
 96 44  1  0  0  0  0
100 45  1  0  0  0  0
101 46  1  0  0  0  0
102 47  1  0  0  0  0
105 52  1  0  0  0  0
106 53  1  0  0  0  0
M  END
$$$$
