Standard file
 OpenBabel12142210053D

 70 76  0  0  0  0  0  0  0  0999 V2000
   -0.1275    2.1963   -0.3642 O   0  0  0  0  0  0  0  0  0  0  0  0
    0.2381    0.7899   -0.3460 P   0  0  0  0  0  0  0  0  0  0  0  0
    1.7673    0.4625   -0.6066 O   0  0  0  0  0  0  0  0  0  0  0  0
   -0.5588   -0.0666   -1.4238 O   0  0  0  0  0  0  0  0  0  0  0  0
   -0.4267   -1.4459   -1.3549 C   0  0  0  0  0  0  0  0  0  0  0  0
    0.4030   -2.0931   -2.2968 C   0  0  0  0  0  0  0  0  0  0  0  0
    1.1237   -1.2978   -3.3013 C   0  0  0  0  0  0  0  0  0  0  0  0
    2.4869   -1.4982   -3.4890 C   0  0  0  0  0  0  0  0  0  0  0  0
    3.1822   -0.7368   -4.4173 C   0  0  0  0  0  0  0  0  0  0  0  0
    4.6615   -0.9725   -4.5644 C   0  0  0  0  0  0  0  0  0  0  0  0
    5.2014   -0.3267   -5.6019 F   0  0  0  0  0  0  0  0  0  0  0  0
    4.9470   -2.2761   -4.7296 F   0  0  0  0  0  0  0  0  0  0  0  0
    5.3395   -0.5799   -3.4706 F   0  0  0  0  0  0  0  0  0  0  0  0
    2.5396    0.2306   -5.1730 C   0  0  0  0  0  0  0  0  0  0  0  0
    1.1764    0.4194   -4.9835 C   0  0  0  0  0  0  0  0  0  0  0  0
    0.4767    1.4451   -5.8357 C   0  0  0  0  0  0  0  0  0  0  0  0
   -0.7654    1.7159   -5.4258 F   0  0  0  0  0  0  0  0  0  0  0  0
    0.3719    1.0316   -7.1146 F   0  0  0  0  0  0  0  0  0  0  0  0
    1.1402    2.6093   -5.8746 F   0  0  0  0  0  0  0  0  0  0  0  0
    0.4678   -0.3313   -4.0604 C   0  0  0  0  0  0  0  0  0  0  0  0
    0.5444   -3.4566   -2.2205 C   0  0  0  0  0  0  0  0  0  0  0  0
   -0.0928   -4.2039   -1.2114 C   0  0  0  0  0  0  0  0  0  0  0  0
   -0.8992   -3.5402   -0.2481 C   0  0  0  0  0  0  0  0  0  0  0  0
   -1.4454   -4.2983    0.8088 C   0  0  0  0  0  0  0  0  0  0  0  0
   -1.2448   -5.6495    0.8783 C   0  0  0  0  0  0  0  0  0  0  0  0
   -0.4873   -6.3111   -0.0991 C   0  0  0  0  0  0  0  0  0  0  0  0
    0.0829   -5.6011   -1.1176 C   0  0  0  0  0  0  0  0  0  0  0  0
   -1.0805   -2.1314   -0.3588 C   0  0  0  0  0  0  0  0  0  0  0  0
   -1.8973   -1.3797    0.6175 C   0  0  0  0  0  0  0  0  0  0  0  0
   -1.3089   -0.3574    1.3318 C   0  0  0  0  0  0  0  0  0  0  0  0
    0.0000    0.0000    1.0483 O   0  0  0  0  0  0  0  0  0  0  0  0
   -1.9844    0.2786    2.4009 C   0  0  0  0  0  0  0  0  0  0  0  0
   -1.2861    1.2507    3.2595 C   0  0  0  0  0  0  0  0  0  0  0  0
   -1.3197    1.0813    4.6411 C   0  0  0  0  0  0  0  0  0  0  0  0
   -0.6362    1.9582    5.4708 C   0  0  0  0  0  0  0  0  0  0  0  0
   -0.7138    1.7299    6.9562 C   0  0  0  0  0  0  0  0  0  0  0  0
   -0.2748    0.5051    7.2989 F   0  0  0  0  0  0  0  0  0  0  0  0
   -1.9796    1.8066    7.4068 F   0  0  0  0  0  0  0  0  0  0  0  0
    0.0000    2.6057    7.6687 F   0  0  0  0  0  0  0  0  0  0  0  0
    0.1085    3.0059    4.9495 C   0  0  0  0  0  0  0  0  0  0  0  0
    0.1284    3.1713    3.5727 C   0  0  0  0  0  0  0  0  0  0  0  0
    0.9421    4.2682    2.9384 C   0  0  0  0  0  0  0  0  0  0  0  0
    1.8730    3.7662    2.1037 F   0  0  0  0  0  0  0  0  0  0  0  0
    0.1938    5.1107    2.2156 F   0  0  0  0  0  0  0  0  0  0  0  0
    1.6049    5.0158    3.8320 F   0  0  0  0  0  0  0  0  0  0  0  0
   -0.5726    2.3209    2.7296 C   0  0  0  0  0  0  0  0  0  0  0  0
   -3.2796   -0.0882    2.6742 C   0  0  0  0  0  0  0  0  0  0  0  0
   -3.9609   -1.0353    1.8868 C   0  0  0  0  0  0  0  0  0  0  0  0
   -3.2656   -1.6982    0.8419 C   0  0  0  0  0  0  0  0  0  0  0  0
   -3.9705   -2.6169    0.0362 C   0  0  0  0  0  0  0  0  0  0  0  0
   -5.2893   -2.8878    0.2770 C   0  0  0  0  0  0  0  0  0  0  0  0
   -5.9671   -2.2583    1.3318 C   0  0  0  0  0  0  0  0  0  0  0  0
   -5.3177   -1.3475    2.1166 C   0  0  0  0  0  0  0  0  0  0  0  0
    2.3135    1.2145   -0.3773 H   0  0  0  0  0  0  0  0  0  0  0  0
    3.0103   -2.2358   -2.8993 H   0  0  0  0  0  0  0  0  0  0  0  0
    3.0824    0.8251   -5.8916 H   0  0  0  0  0  0  0  0  0  0  0  0
   -0.5910   -0.1692   -3.9320 H   0  0  0  0  0  0  0  0  0  0  0  0
    1.1589   -3.9721   -2.9437 H   0  0  0  0  0  0  0  0  0  0  0  0
   -2.0195   -3.7992    1.5734 H   0  0  0  0  0  0  0  0  0  0  0  0
   -1.6682   -6.2155    1.6942 H   0  0  0  0  0  0  0  0  0  0  0  0
   -0.3475   -7.3792   -0.0319 H   0  0  0  0  0  0  0  0  0  0  0  0
    0.6869   -6.0956   -1.8638 H   0  0  0  0  0  0  0  0  0  0  0  0
   -1.8653    0.2550    5.0721 H   0  0  0  0  0  0  0  0  0  0  0  0
    0.6558    3.6724    5.5978 H   0  0  0  0  0  0  0  0  0  0  0  0
   -0.5607    2.5016    1.6663 H   0  0  0  0  0  0  0  0  0  0  0  0
   -3.8066    0.3876    3.4879 H   0  0  0  0  0  0  0  0  0  0  0  0
   -3.4594   -3.0962   -0.7845 H   0  0  0  0  0  0  0  0  0  0  0  0
   -5.8192   -3.5882   -0.3507 H   0  0  0  0  0  0  0  0  0  0  0  0
   -7.0061   -2.4907    1.5101 H   0  0  0  0  0  0  0  0  0  0  0  0
   -5.8342   -0.8434    2.9198 H   0  0  0  0  0  0  0  0  0  0  0  0
  1  2  2  0  0  0  0
  2 31  1  0  0  0  0
  3 54  1  0  0  0  0
  3  2  1  0  0  0  0
  4  5  1  0  0  0  0
  4  2  1  0  0  0  0
  5 28  1  0  0  0  0
  6 21  1  0  0  0  0
  6  5  2  0  0  0  0
  7  6  1  0  0  0  0
  8  7  1  0  0  0  0
  8 55  1  0  0  0  0
  9  8  2  0  0  0  0
 10  9  1  0  0  0  0
 10 13  1  0  0  0  0
 11 10  1  0  0  0  0
 12 10  1  0  0  0  0
 14 15  2  0  0  0  0
 14  9  1  0  0  0  0
 15 20  1  0  0  0  0
 16 17  1  0  0  0  0
 16 15  1  0  0  0  0
 18 16  1  0  0  0  0
 19 16  1  0  0  0  0
 20 57  1  0  0  0  0
 20  7  2  0  0  0  0
 21 22  2  0  0  0  0
 22 27  1  0  0  0  0
 22 23  1  0  0  0  0
 23 24  1  0  0  0  0
 24 25  2  0  0  0  0
 24 59  1  0  0  0  0
 25 60  1  0  0  0  0
 26 61  1  0  0  0  0
 26 25  1  0  0  0  0
 27 26  2  0  0  0  0
 28 23  2  0  0  0  0
 28 29  1  0  0  0  0
 29 49  2  0  0  0  0
 29 30  1  0  0  0  0
 30 32  2  0  0  0  0
 31 30  1  0  0  0  0
 32 47  1  0  0  0  0
 32 33  1  0  0  0  0
 33 34  1  0  0  0  0
 34 63  1  0  0  0  0
 34 35  2  0  0  0  0
 35 36  1  0  0  0  0
 36 37  1  0  0  0  0
 36 38  1  0  0  0  0
 36 39  1  0  0  0  0
 40 35  1  0  0  0  0
 40 64  1  0  0  0  0
 41 40  2  0  0  0  0
 42 41  1  0  0  0  0
 42 45  1  0  0  0  0
 43 42  1  0  0  0  0
 44 42  1  0  0  0  0
 46 33  2  0  0  0  0
 46 41  1  0  0  0  0
 47 66  1  0  0  0  0
 48 53  1  0  0  0  0
 48 47  2  0  0  0  0
 49 48  1  0  0  0  0
 50 51  2  0  0  0  0
 50 49  1  0  0  0  0
 51 52  1  0  0  0  0
 52 69  1  0  0  0  0
 52 53  2  0  0  0  0
 53 70  1  0  0  0  0
 56 14  1  0  0  0  0
 58 21  1  0  0  0  0
 62 27  1  0  0  0  0
 65 46  1  0  0  0  0
 67 50  1  0  0  0  0
 68 51  1  0  0  0  0
M  END
$$$$
