Standard file
 OpenBabel12142210053D

154166  0  0  0  0  0  0  0  0999 V2000
    0.2172    1.9183   -0.6646 O   0  0  0  0  0  0  0  0  0  0  0  0
   -0.3046    0.5996   -0.3389 P   0  0  0  0  0  0  0  0  0  0  0  0
   -1.8916    0.4996   -0.3320 O   0  0  0  0  0  0  0  0  0  0  0  0
    0.2148   -0.5111   -1.3517 O   0  0  0  0  0  0  0  0  0  0  0  0
    0.0861   -1.8567   -1.0448 C   0  0  0  0  0  0  0  0  0  0  0  0
   -0.7785   -2.6373   -1.8430 C   0  0  0  0  0  0  0  0  0  0  0  0
   -1.5642   -2.0006   -2.9231 C   0  0  0  0  0  0  0  0  0  0  0  0
   -0.9241   -1.5198   -4.0699 C   0  0  0  0  0  0  0  0  0  0  0  0
    0.5639   -1.6760   -4.2711 C   0  0  0  0  0  0  0  0  0  0  0  0
    0.8818   -2.5536   -5.5062 C   0  0  0  0  0  0  0  0  0  0  0  0
    1.4872   -1.7538   -6.6553 C   0  0  0  0  0  0  0  0  0  0  0  0
    2.7954   -1.0809   -6.2328 C   0  0  0  0  0  0  0  0  0  0  0  0
    2.7094   -0.5135   -4.8070 C   0  0  0  0  0  0  0  0  0  0  0  0
    1.2602   -0.3122   -4.3791 C   0  0  0  0  0  0  0  0  0  0  0  0
   -1.6857   -0.9364   -5.0693 C   0  0  0  0  0  0  0  0  0  0  0  0
   -3.0645   -0.7989   -4.9701 C   0  0  0  0  0  0  0  0  0  0  0  0
   -3.8240   -0.1574   -6.1146 C   0  0  0  0  0  0  0  0  0  0  0  0
   -5.3259    0.0353   -5.8727 C   0  0  0  0  0  0  0  0  0  0  0  0
   -5.6201    1.1137   -4.8306 C   0  0  0  0  0  0  0  0  0  0  0  0
   -4.9794    2.4386   -5.2278 C   0  0  0  0  0  0  0  0  0  0  0  0
   -3.4800    2.2474   -5.4256 C   0  0  0  0  0  0  0  0  0  0  0  0
   -3.2264    1.2035   -6.5071 C   0  0  0  0  0  0  0  0  0  0  0  0
   -3.6772   -1.3203   -3.8419 C   0  0  0  0  0  0  0  0  0  0  0  0
   -2.9546   -1.9099   -2.8129 C   0  0  0  0  0  0  0  0  0  0  0  0
   -3.6941   -2.4673   -1.6185 C   0  0  0  0  0  0  0  0  0  0  0  0
   -4.5457   -3.6975   -2.0172 C   0  0  0  0  0  0  0  0  0  0  0  0
   -6.0401   -3.3936   -2.0304 C   0  0  0  0  0  0  0  0  0  0  0  0
   -6.5294   -2.9619   -0.6451 C   0  0  0  0  0  0  0  0  0  0  0  0
   -5.4882   -2.0948    0.0774 C   0  0  0  0  0  0  0  0  0  0  0  0
   -4.5602   -1.4098   -0.9198 C   0  0  0  0  0  0  0  0  0  0  0  0
   -0.8691   -3.9818   -1.5851 C   0  0  0  0  0  0  0  0  0  0  0  0
   -0.1814   -4.5727   -0.5070 C   0  0  0  0  0  0  0  0  0  0  0  0
    0.6657   -3.7732    0.3040 C   0  0  0  0  0  0  0  0  0  0  0  0
    1.2727   -4.3636    1.4322 C   0  0  0  0  0  0  0  0  0  0  0  0
    1.0886   -5.6890    1.7136 C   0  0  0  0  0  0  0  0  0  0  0  0
    0.2905   -6.4902    0.8839 C   0  0  0  0  0  0  0  0  0  0  0  0
   -0.3364   -5.9407   -0.1985 C   0  0  0  0  0  0  0  0  0  0  0  0
    0.8361   -2.3980   -0.0268 C   0  0  0  0  0  0  0  0  0  0  0  0
    1.7762   -1.5456    0.7271 C   0  0  0  0  0  0  0  0  0  0  0  0
    1.3165   -0.3923    1.3224 C   0  0  0  0  0  0  0  0  0  0  0  0
    0.0000    0.0000    1.1177 O   0  0  0  0  0  0  0  0  0  0  0  0
    2.1289    0.3924    2.1689 C   0  0  0  0  0  0  0  0  0  0  0  0
    1.5692    1.5804    2.8533 C   0  0  0  0  0  0  0  0  0  0  0  0
    0.6621    1.4105    3.9032 C   0  0  0  0  0  0  0  0  0  0  0  0
    0.2337    0.0388    4.3672 C   0  0  0  0  0  0  0  0  0  0  0  0
    0.5697   -0.1942    5.8597 C   0  0  0  0  0  0  0  0  0  0  0  0
   -0.6734   -0.2356    6.7425 C   0  0  0  0  0  0  0  0  0  0  0  0
   -1.6191   -1.3605    6.3151 C   0  0  0  0  0  0  0  0  0  0  0  0
   -1.7061   -1.4811    4.7854 C   0  0  0  0  0  0  0  0  0  0  0  0
   -1.2606   -0.1925    4.1035 C   0  0  0  0  0  0  0  0  0  0  0  0
    0.1806    2.5333    4.5607 C   0  0  0  0  0  0  0  0  0  0  0  0
    0.5861    3.8126    4.2161 C   0  0  0  0  0  0  0  0  0  0  0  0
    0.0807    5.0015    4.9936 C   0  0  0  0  0  0  0  0  0  0  0  0
    1.1552    5.4612    5.9926 C   0  0  0  0  0  0  0  0  0  0  0  0
    0.7739    6.8158    6.5784 C   0  0  0  0  0  0  0  0  0  0  0  0
    0.8014    7.9103    5.5013 C   0  0  0  0  0  0  0  0  0  0  0  0
    0.6397    7.3237    4.0964 C   0  0  0  0  0  0  0  0  0  0  0  0
   -0.3634    6.1743    4.0938 C   0  0  0  0  0  0  0  0  0  0  0  0
    1.4940    3.9556    3.1789 C   0  0  0  0  0  0  0  0  0  0  0  0
    1.9823    2.8631    2.4785 C   0  0  0  0  0  0  0  0  0  0  0  0
    2.9711    3.0742    1.3600 C   0  0  0  0  0  0  0  0  0  0  0  0
    2.4553    4.0519    0.2896 C   0  0  0  0  0  0  0  0  0  0  0  0
    3.6120    4.6970   -0.4834 C   0  0  0  0  0  0  0  0  0  0  0  0
    4.7935    3.7381   -0.5779 C   0  0  0  0  0  0  0  0  0  0  0  0
    5.3866    3.4831    0.8138 C   0  0  0  0  0  0  0  0  0  0  0  0
    4.3132    3.5795    1.9032 C   0  0  0  0  0  0  0  0  0  0  0  0
    3.4309    0.0059    2.3645 C   0  0  0  0  0  0  0  0  0  0  0  0
    3.9807   -1.1037    1.6933 C   0  0  0  0  0  0  0  0  0  0  0  0
    3.1512   -1.8922    0.8541 C   0  0  0  0  0  0  0  0  0  0  0  0
    3.7333   -2.9591    0.1379 C   0  0  0  0  0  0  0  0  0  0  0  0
    5.0614   -3.2531    0.2771 C   0  0  0  0  0  0  0  0  0  0  0  0
    5.8721   -2.4994    1.1385 C   0  0  0  0  0  0  0  0  0  0  0  0
    5.3431   -1.4445    1.8271 C   0  0  0  0  0  0  0  0  0  0  0  0
   -2.2554    1.3690   -0.4920 H   0  0  0  0  0  0  0  0  0  0  0  0
    0.9783   -2.1792   -3.3931 H   0  0  0  0  0  0  0  0  0  0  0  0
    1.5917   -3.3326   -5.2201 H   0  0  0  0  0  0  0  0  0  0  0  0
   -0.0285   -3.0521   -5.8469 H   0  0  0  0  0  0  0  0  0  0  0  0
    0.7766   -0.9986   -6.9929 H   0  0  0  0  0  0  0  0  0  0  0  0
    1.6747   -2.4182   -7.5020 H   0  0  0  0  0  0  0  0  0  0  0  0
    3.0253   -0.2830   -6.9418 H   0  0  0  0  0  0  0  0  0  0  0  0
    3.6103   -1.8055   -6.2862 H   0  0  0  0  0  0  0  0  0  0  0  0
    3.1830   -1.2013   -4.1027 H   0  0  0  0  0  0  0  0  0  0  0  0
    3.2490    0.4330   -4.7485 H   0  0  0  0  0  0  0  0  0  0  0  0
    0.7479    0.3293   -5.0963 H   0  0  0  0  0  0  0  0  0  0  0  0
    1.2190    0.1853   -3.4096 H   0  0  0  0  0  0  0  0  0  0  0  0
   -1.1872   -0.6024   -5.9655 H   0  0  0  0  0  0  0  0  0  0  0  0
   -3.7108   -0.8314   -6.9762 H   0  0  0  0  0  0  0  0  0  0  0  0
   -5.7882   -0.9110   -5.5846 H   0  0  0  0  0  0  0  0  0  0  0  0
   -5.7814    0.3373   -6.8199 H   0  0  0  0  0  0  0  0  0  0  0  0
   -5.2242    0.8181   -3.8584 H   0  0  0  0  0  0  0  0  0  0  0  0
   -6.7018    1.2356   -4.7315 H   0  0  0  0  0  0  0  0  0  0  0  0
   -5.4250    2.7988   -6.1586 H   0  0  0  0  0  0  0  0  0  0  0  0
   -5.1660    3.1884   -4.4559 H   0  0  0  0  0  0  0  0  0  0  0  0
   -3.0232    1.9161   -4.4900 H   0  0  0  0  0  0  0  0  0  0  0  0
   -3.0164    3.1943   -5.7105 H   0  0  0  0  0  0  0  0  0  0  0  0
   -3.6929    1.5331   -7.4392 H   0  0  0  0  0  0  0  0  0  0  0  0
   -2.1556    1.1169   -6.6902 H   0  0  0  0  0  0  0  0  0  0  0  0
   -4.7494   -1.2972   -3.7543 H   0  0  0  0  0  0  0  0  0  0  0  0
   -2.9556   -2.7959   -0.8825 H   0  0  0  0  0  0  0  0  0  0  0  0
   -4.3652   -4.5069   -1.3064 H   0  0  0  0  0  0  0  0  0  0  0  0
   -4.2382   -4.0513   -3.0039 H   0  0  0  0  0  0  0  0  0  0  0  0
   -6.2467   -2.6075   -2.7575 H   0  0  0  0  0  0  0  0  0  0  0  0
   -6.5903   -4.2801   -2.3536 H   0  0  0  0  0  0  0  0  0  0  0  0
   -6.7457   -3.8451   -0.0410 H   0  0  0  0  0  0  0  0  0  0  0  0
   -7.4646   -2.4094   -0.7572 H   0  0  0  0  0  0  0  0  0  0  0  0
   -5.9903   -1.3490    0.6963 H   0  0  0  0  0  0  0  0  0  0  0  0
   -4.8824   -2.7150    0.7415 H   0  0  0  0  0  0  0  0  0  0  0  0
   -5.1526   -0.8421   -1.6372 H   0  0  0  0  0  0  0  0  0  0  0  0
   -3.9042   -0.7088   -0.4031 H   0  0  0  0  0  0  0  0  0  0  0  0
   -1.5037   -4.5988   -2.2042 H   0  0  0  0  0  0  0  0  0  0  0  0
    1.8793   -3.7529    2.0832 H   0  0  0  0  0  0  0  0  0  0  0  0
    1.5564   -6.1264    2.5832 H   0  0  0  0  0  0  0  0  0  0  0  0
    0.1652   -7.5374    1.1157 H   0  0  0  0  0  0  0  0  0  0  0  0
   -0.9726   -6.5417   -0.8321 H   0  0  0  0  0  0  0  0  0  0  0  0
    0.7812   -0.7078    3.7848 H   0  0  0  0  0  0  0  0  0  0  0  0
    1.0965   -1.1451    5.9652 H   0  0  0  0  0  0  0  0  0  0  0  0
    1.2423    0.5912    6.2109 H   0  0  0  0  0  0  0  0  0  0  0  0
   -1.1933    0.7216    6.6912 H   0  0  0  0  0  0  0  0  0  0  0  0
   -0.3763   -0.3840    7.7832 H   0  0  0  0  0  0  0  0  0  0  0  0
   -2.6087   -1.1663    6.7338 H   0  0  0  0  0  0  0  0  0  0  0  0
   -1.2710   -2.3069    6.7338 H   0  0  0  0  0  0  0  0  0  0  0  0
   -2.7271   -1.7269    4.4880 H   0  0  0  0  0  0  0  0  0  0  0  0
   -1.0624   -2.2928    4.4382 H   0  0  0  0  0  0  0  0  0  0  0  0
   -1.4218   -0.2608    3.0271 H   0  0  0  0  0  0  0  0  0  0  0  0
   -1.8508    0.6474    4.4710 H   0  0  0  0  0  0  0  0  0  0  0  0
   -0.5161    2.4094    5.3765 H   0  0  0  0  0  0  0  0  0  0  0  0
   -0.7880    4.6723    5.5746 H   0  0  0  0  0  0  0  0  0  0  0  0
    2.1243    5.5296    5.4965 H   0  0  0  0  0  0  0  0  0  0  0  0
    1.2467    4.7176    6.7871 H   0  0  0  0  0  0  0  0  0  0  0  0
    1.4531    7.0762    7.3921 H   0  0  0  0  0  0  0  0  0  0  0  0
   -0.2291    6.7371    7.0037 H   0  0  0  0  0  0  0  0  0  0  0  0
    1.7442    8.4591    5.5489 H   0  0  0  0  0  0  0  0  0  0  0  0
    0.0000    8.6262    5.6938 H   0  0  0  0  0  0  0  0  0  0  0  0
    0.3034    8.1043    3.4105 H   0  0  0  0  0  0  0  0  0  0  0  0
    1.6057    6.9707    3.7340 H   0  0  0  0  0  0  0  0  0  0  0  0
   -0.5144    5.8148    3.0741 H   0  0  0  0  0  0  0  0  0  0  0  0
   -1.3221    6.5584    4.4491 H   0  0  0  0  0  0  0  0  0  0  0  0
    1.8339    4.9424    2.9077 H   0  0  0  0  0  0  0  0  0  0  0  0
    3.1519    2.1112    0.8762 H   0  0  0  0  0  0  0  0  0  0  0  0
    1.8502    4.8348    0.7478 H   0  0  0  0  0  0  0  0  0  0  0  0
    1.8059    3.4998   -0.3884 H   0  0  0  0  0  0  0  0  0  0  0  0
    3.2735    4.9745   -1.4830 H   0  0  0  0  0  0  0  0  0  0  0  0
    3.9414    5.6116    0.0155 H   0  0  0  0  0  0  0  0  0  0  0  0
    5.5616    4.1457   -1.2383 H   0  0  0  0  0  0  0  0  0  0  0  0
    4.4472    2.8006   -1.0165 H   0  0  0  0  0  0  0  0  0  0  0  0
    6.1744    4.2107    1.0218 H   0  0  0  0  0  0  0  0  0  0  0  0
    5.8435    2.4912    0.8335 H   0  0  0  0  0  0  0  0  0  0  0  0
    4.6137    2.9954    2.7757 H   0  0  0  0  0  0  0  0  0  0  0  0
    4.1996    4.6140    2.2309 H   0  0  0  0  0  0  0  0  0  0  0  0
    4.0592    0.5786    3.0304 H   0  0  0  0  0  0  0  0  0  0  0  0
    3.1190   -3.5363   -0.5364 H   0  0  0  0  0  0  0  0  0  0  0  0
    5.4957   -4.0684   -0.2823 H   0  0  0  0  0  0  0  0  0  0  0  0
    6.9170   -2.7517    1.2422 H   0  0  0  0  0  0  0  0  0  0  0  0
    5.9621   -0.8438    2.4778 H   0  0  0  0  0  0  0  0  0  0  0  0
  1  2  2  0  0  0  0
  2  3  1  0  0  0  0
  2 41  1  0  0  0  0
  4  5  1  0  0  0  0
  4  2  1  0  0  0  0
  5 38  1  0  0  0  0
  6 31  1  0  0  0  0
  6  5  2  0  0  0  0
  7 24  1  0  0  0  0
  7  6  1  0  0  0  0
  8  7  2  0  0  0  0
  9  8  1  0  0  0  0
  9 75  1  0  0  0  0
 10 76  1  0  0  0  0
 10  9  1  0  0  0  0
 11 12  1  0  0  0  0
 11 10  1  0  0  0  0
 12 13  1  0  0  0  0
 13 83  1  0  0  0  0
 13 14  1  0  0  0  0
 13 82  1  0  0  0  0
 14  9  1  0  0  0  0
 14 85  1  0  0  0  0
 15 16  2  0  0  0  0
 15  8  1  0  0  0  0
 16 23  1  0  0  0  0
 17 18  1  0  0  0  0
 17 16  1  0  0  0  0
 18 88  1  0  0  0  0
 18 19  1  0  0  0  0
 19 91  1  0  0  0  0
 19 90  1  0  0  0  0
 20 19  1  0  0  0  0
 20 93  1  0  0  0  0
 21 20  1  0  0  0  0
 21 94  1  0  0  0  0
 22 17  1  0  0  0  0
 22 21  1  0  0  0  0
 23 98  1  0  0  0  0
 23 24  2  0  0  0  0
 24 25  1  0  0  0  0
 25 30  1  0  0  0  0
 25 99  1  0  0  0  0
 26 25  1  0  0  0  0
 26100  1  0  0  0  0
 27 26  1  0  0  0  0
 27 28  1  0  0  0  0
 28104  1  0  0  0  0
 28 29  1  0  0  0  0
 29106  1  0  0  0  0
 29107  1  0  0  0  0
 30109  1  0  0  0  0
 30 29  1  0  0  0  0
 31 32  2  0  0  0  0
 32 37  1  0  0  0  0
 32 33  1  0  0  0  0
 33 34  1  0  0  0  0
 34 35  2  0  0  0  0
 34111  1  0  0  0  0
 35112  1  0  0  0  0
 36113  1  0  0  0  0
 36 35  1  0  0  0  0
 37 36  2  0  0  0  0
 38 33  2  0  0  0  0
 38 39  1  0  0  0  0
 39 69  2  0  0  0  0
 39 40  1  0  0  0  0
 40 42  2  0  0  0  0
 41 40  1  0  0  0  0
 42 67  1  0  0  0  0
 42 43  1  0  0  0  0
 43 44  1  0  0  0  0
 44 45  1  0  0  0  0
 44 51  2  0  0  0  0
 45 46  1  0  0  0  0
 46116  1  0  0  0  0
 46117  1  0  0  0  0
 46 47  1  0  0  0  0
 47119  1  0  0  0  0
 48120  1  0  0  0  0
 48121  1  0  0  0  0
 48 47  1  0  0  0  0
 49 48  1  0  0  0  0
 50 45  1  0  0  0  0
 50125  1  0  0  0  0
 50 49  1  0  0  0  0
 51126  1  0  0  0  0
 52 51  1  0  0  0  0
 52 53  1  0  0  0  0
 53127  1  0  0  0  0
 53 54  1  0  0  0  0
 54 55  1  0  0  0  0
 54129  1  0  0  0  0
 55131  1  0  0  0  0
 55130  1  0  0  0  0
 56132  1  0  0  0  0
 56133  1  0  0  0  0
 56 55  1  0  0  0  0
 57 56  1  0  0  0  0
 58 57  1  0  0  0  0
 58137  1  0  0  0  0
 58 53  1  0  0  0  0
 59 52  2  0  0  0  0
 60 43  2  0  0  0  0
 60 59  1  0  0  0  0
 61 66  1  0  0  0  0
 61 60  1  0  0  0  0
 62140  1  0  0  0  0
 62 61  1  0  0  0  0
 63143  1  0  0  0  0
 63 62  1  0  0  0  0
 64 63  1  0  0  0  0
 64 65  1  0  0  0  0
 65147  1  0  0  0  0
 65146  1  0  0  0  0
 65 66  1  0  0  0  0
 66149  1  0  0  0  0
 66148  1  0  0  0  0
 67150  1  0  0  0  0
 68 73  1  0  0  0  0
 68 67  2  0  0  0  0
 69 68  1  0  0  0  0
 70 71  2  0  0  0  0
 70 69  1  0  0  0  0
 71 72  1  0  0  0  0
 72153  1  0  0  0  0
 72 73  2  0  0  0  0
 73154  1  0  0  0  0
 74  3  1  0  0  0  0
 77 10  1  0  0  0  0
 78 11  1  0  0  0  0
 79 11  1  0  0  0  0
 80 12  1  0  0  0  0
 81 12  1  0  0  0  0
 84 14  1  0  0  0  0
 86 15  1  0  0  0  0
 87 17  1  0  0  0  0
 89 18  1  0  0  0  0
 92 20  1  0  0  0  0
 95 21  1  0  0  0  0
 96 22  1  0  0  0  0
 97 22  1  0  0  0  0
101 26  1  0  0  0  0
102 27  1  0  0  0  0
103 27  1  0  0  0  0
105 28  1  0  0  0  0
108 30  1  0  0  0  0
110 31  1  0  0  0  0
114 37  1  0  0  0  0
115 45  1  0  0  0  0
118 47  1  0  0  0  0
122 49  1  0  0  0  0
123 49  1  0  0  0  0
124 50  1  0  0  0  0
128 54  1  0  0  0  0
134 57  1  0  0  0  0
135 57  1  0  0  0  0
136 58  1  0  0  0  0
138 59  1  0  0  0  0
139 61  1  0  0  0  0
141 62  1  0  0  0  0
142 63  1  0  0  0  0
144 64  1  0  0  0  0
145 64  1  0  0  0  0
151 70  1  0  0  0  0
152 71  1  0  0  0  0
M  END
$$$$
