Standard file
 OpenBabel12142210053D

142152  0  0  0  0  0  0  0  0999 V2000
   -1.0852   -0.2730   -0.9961 O   0  0  0  0  0  0  0  0  0  0  0  0
    0.1156    0.1048   -0.2788 P   0  0  0  0  0  0  0  0  0  0  0  0
    0.0000    0.0000    1.2984 O   0  0  0  0  0  0  0  0  0  0  0  0
    1.4601   -0.7479   -0.5551 O   0  0  0  0  0  0  0  0  0  0  0  0
    1.9197   -0.5470   -1.8578 C   0  0  0  0  0  0  0  0  0  0  0  0
    1.5362   -1.4160   -2.8723 C   0  0  0  0  0  0  0  0  0  0  0  0
    0.5815   -2.4957   -2.5878 C   0  0  0  0  0  0  0  0  0  0  0  0
   -0.5685   -2.5946   -3.3618 C   0  0  0  0  0  0  0  0  0  0  0  0
   -1.5511   -3.5211   -3.0491 C   0  0  0  0  0  0  0  0  0  0  0  0
   -2.7961   -3.5716   -3.8488 C   0  0  0  0  0  0  0  0  0  0  0  0
   -2.8440   -4.3288   -5.0186 C   0  0  0  0  0  0  0  0  0  0  0  0
   -1.6379   -5.1079   -5.4547 C   0  0  0  0  0  0  0  0  0  0  0  0
   -4.0126   -4.3513   -5.7635 C   0  0  0  0  0  0  0  0  0  0  0  0
   -5.1312   -3.6315   -5.3682 C   0  0  0  0  0  0  0  0  0  0  0  0
   -6.3942   -3.6818   -6.1755 C   0  0  0  0  0  0  0  0  0  0  0  0
   -5.0639   -2.8853   -4.2008 C   0  0  0  0  0  0  0  0  0  0  0  0
   -3.9106   -2.8439   -3.4306 C   0  0  0  0  0  0  0  0  0  0  0  0
   -3.8652   -2.0497   -2.1609 C   0  0  0  0  0  0  0  0  0  0  0  0
   -1.3706   -4.3682   -1.9647 C   0  0  0  0  0  0  0  0  0  0  0  0
   -0.2179   -4.2928   -1.1964 C   0  0  0  0  0  0  0  0  0  0  0  0
   -0.0396   -5.1755   -0.0208 C   0  0  0  0  0  0  0  0  0  0  0  0
    0.5506   -6.4291   -0.1690 C   0  0  0  0  0  0  0  0  0  0  0  0
    0.9945   -6.8903   -1.5258 C   0  0  0  0  0  0  0  0  0  0  0  0
    0.7123   -7.2382    0.9463 C   0  0  0  0  0  0  0  0  0  0  0  0
    0.2994   -6.8219    2.2025 C   0  0  0  0  0  0  0  0  0  0  0  0
    0.4898   -7.6933    3.4083 C   0  0  0  0  0  0  0  0  0  0  0  0
   -0.2866   -5.5696    2.3300 C   0  0  0  0  0  0  0  0  0  0  0  0
   -0.4640   -4.7383    1.2351 C   0  0  0  0  0  0  0  0  0  0  0  0
   -1.1209   -3.3996    1.3829 C   0  0  0  0  0  0  0  0  0  0  0  0
    0.7565   -3.3570   -1.5127 C   0  0  0  0  0  0  0  0  0  0  0  0
    1.9988   -1.1491   -4.1546 C   0  0  0  0  0  0  0  0  0  0  0  0
    2.7515   -0.0204   -4.4452 C   0  0  0  0  0  0  0  0  0  0  0  0
    3.0647    0.8844   -3.4307 C   0  0  0  0  0  0  0  0  0  0  0  0
    3.6877    2.2153   -3.7542 C   0  0  0  0  0  0  0  0  0  0  0  0
    4.4633    2.1881   -5.0654 C   0  0  0  0  0  0  0  0  0  0  0  0
    3.5665    1.6395   -6.1667 C   0  0  0  0  0  0  0  0  0  0  0  0
    3.2195    0.1873   -5.8612 C   0  0  0  0  0  0  0  0  0  0  0  0
    2.6720    0.5951   -2.1201 C   0  0  0  0  0  0  0  0  0  0  0  0
    2.9608    1.4729   -0.9639 C   0  0  0  0  0  0  0  0  0  0  0  0
    1.8776    1.9445   -0.2207 C   0  0  0  0  0  0  0  0  0  0  0  0
    0.5905    1.6032   -0.6229 O   0  0  0  0  0  0  0  0  0  0  0  0
    2.0560    2.6709    0.9553 C   0  0  0  0  0  0  0  0  0  0  0  0
    0.8932    3.0031    1.7952 C   0  0  0  0  0  0  0  0  0  0  0  0
   -0.2552    3.5656    1.2517 C   0  0  0  0  0  0  0  0  0  0  0  0
   -1.3757    3.7785    2.0421 C   0  0  0  0  0  0  0  0  0  0  0  0
   -2.6098    4.3372    1.4454 C   0  0  0  0  0  0  0  0  0  0  0  0
   -3.4869    3.4885    0.7683 C   0  0  0  0  0  0  0  0  0  0  0  0
   -3.1892    2.0252    0.6531 C   0  0  0  0  0  0  0  0  0  0  0  0
   -4.6381    4.0244    0.2106 C   0  0  0  0  0  0  0  0  0  0  0  0
   -4.9325    5.3764    0.3120 C   0  0  0  0  0  0  0  0  0  0  0  0
   -6.1951    5.9295   -0.2784 C   0  0  0  0  0  0  0  0  0  0  0  0
   -4.0486    6.2011    0.9926 C   0  0  0  0  0  0  0  0  0  0  0  0
   -2.8889    5.6980    1.5618 C   0  0  0  0  0  0  0  0  0  0  0  0
   -1.9407    6.5992    2.2978 C   0  0  0  0  0  0  0  0  0  0  0  0
   -1.3401    3.4373    3.3871 C   0  0  0  0  0  0  0  0  0  0  0  0
   -0.1952    2.8881    3.9477 C   0  0  0  0  0  0  0  0  0  0  0  0
   -0.1638    2.5141    5.3800 C   0  0  0  0  0  0  0  0  0  0  0  0
   -0.7641    1.3285    5.8043 C   0  0  0  0  0  0  0  0  0  0  0  0
   -1.4692    0.4339    4.8275 C   0  0  0  0  0  0  0  0  0  0  0  0
   -0.7185    0.9958    7.1503 C   0  0  0  0  0  0  0  0  0  0  0  0
   -0.0959    1.8163    8.0793 C   0  0  0  0  0  0  0  0  0  0  0  0
   -0.0387    1.4295    9.5265 C   0  0  0  0  0  0  0  0  0  0  0  0
    0.4908    2.9937    7.6379 C   0  0  0  0  0  0  0  0  0  0  0  0
    0.4660    3.3534    6.2997 C   0  0  0  0  0  0  0  0  0  0  0  0
    1.1000    4.6333    5.8398 C   0  0  0  0  0  0  0  0  0  0  0  0
    0.9174    2.6734    3.1474 C   0  0  0  0  0  0  0  0  0  0  0  0
    3.3555    2.9697    1.3551 C   0  0  0  0  0  0  0  0  0  0  0  0
    4.4422    2.5183    0.6301 C   0  0  0  0  0  0  0  0  0  0  0  0
    4.2524    1.7465   -0.5168 C   0  0  0  0  0  0  0  0  0  0  0  0
    5.4883    1.1474   -1.1163 C   0  0  0  0  0  0  0  0  0  0  0  0
    6.2760    0.4704    0.0124 C   0  0  0  0  0  0  0  0  0  0  0  0
    6.6532    1.4604    1.1264 C   0  0  0  0  0  0  0  0  0  0  0  0
    5.8590    2.7748    1.0383 C   0  0  0  0  0  0  0  0  0  0  0  0
    0.7832    0.2632    1.7852 H   0  0  0  0  0  0  0  0  0  0  0  0
   -0.7225   -1.9098   -4.1831 H   0  0  0  0  0  0  0  0  0  0  0  0
   -1.8474   -5.6712   -6.3608 H   0  0  0  0  0  0  0  0  0  0  0  0
   -0.8000   -4.4380   -5.6445 H   0  0  0  0  0  0  0  0  0  0  0  0
   -1.3301   -5.8015   -4.6731 H   0  0  0  0  0  0  0  0  0  0  0  0
   -4.0527   -4.9385   -6.6709 H   0  0  0  0  0  0  0  0  0  0  0  0
   -6.9828   -2.7786   -6.0324 H   0  0  0  0  0  0  0  0  0  0  0  0
   -7.0016   -4.5334   -5.8660 H   0  0  0  0  0  0  0  0  0  0  0  0
   -6.1734   -3.7952   -7.2348 H   0  0  0  0  0  0  0  0  0  0  0  0
   -5.9300   -2.3207   -3.8836 H   0  0  0  0  0  0  0  0  0  0  0  0
   -3.8931   -2.7207   -1.3019 H   0  0  0  0  0  0  0  0  0  0  0  0
   -2.9493   -1.4668   -2.0823 H   0  0  0  0  0  0  0  0  0  0  0  0
   -4.7191   -1.3795   -2.0968 H   0  0  0  0  0  0  0  0  0  0  0  0
   -2.1401   -5.0836   -1.7085 H   0  0  0  0  0  0  0  0  0  0  0  0
    0.1359   -6.9942   -2.1888 H   0  0  0  0  0  0  0  0  0  0  0  0
    1.5027   -7.8495   -1.4624 H   0  0  0  0  0  0  0  0  0  0  0  0
    1.6683   -6.1621   -1.9753 H   0  0  0  0  0  0  0  0  0  0  0  0
    1.1688   -8.2119    0.8316 H   0  0  0  0  0  0  0  0  0  0  0  0
    1.2849   -7.2943    4.0389 H   0  0  0  0  0  0  0  0  0  0  0  0
    0.7589   -8.7061    3.1187 H   0  0  0  0  0  0  0  0  0  0  0  0
   -0.4208   -7.7289    4.0039 H   0  0  0  0  0  0  0  0  0  0  0  0
   -0.6140   -5.2372    3.3058 H   0  0  0  0  0  0  0  0  0  0  0  0
   -1.2606   -3.1478    2.4313 H   0  0  0  0  0  0  0  0  0  0  0  0
   -0.5340   -2.6153    0.9068 H   0  0  0  0  0  0  0  0  0  0  0  0
   -2.0953   -3.4019    0.8953 H   0  0  0  0  0  0  0  0  0  0  0  0
    1.6523   -3.2967   -0.9114 H   0  0  0  0  0  0  0  0  0  0  0  0
    1.7337   -1.8277   -4.9525 H   0  0  0  0  0  0  0  0  0  0  0  0
    2.8725    2.9432   -3.8388 H   0  0  0  0  0  0  0  0  0  0  0  0
    4.3263    2.5527   -2.9402 H   0  0  0  0  0  0  0  0  0  0  0  0
    5.3448    1.5514   -4.9609 H   0  0  0  0  0  0  0  0  0  0  0  0
    4.8017    3.1958   -5.3136 H   0  0  0  0  0  0  0  0  0  0  0  0
    2.6522    2.2340   -6.2167 H   0  0  0  0  0  0  0  0  0  0  0  0
    4.0635    1.7032   -7.1365 H   0  0  0  0  0  0  0  0  0  0  0  0
    2.4547   -0.1716   -6.5530 H   0  0  0  0  0  0  0  0  0  0  0  0
    4.1094   -0.4332   -6.0149 H   0  0  0  0  0  0  0  0  0  0  0  0
   -0.2802    3.8378    0.2075 H   0  0  0  0  0  0  0  0  0  0  0  0
   -2.9309    1.6031    1.6232 H   0  0  0  0  0  0  0  0  0  0  0  0
   -4.0437    1.4861    0.2531 H   0  0  0  0  0  0  0  0  0  0  0  0
   -2.3410    1.8474   -0.0078 H   0  0  0  0  0  0  0  0  0  0  0  0
   -5.3201    3.3719   -0.3165 H   0  0  0  0  0  0  0  0  0  0  0  0
   -6.0734    6.9767   -0.5456 H   0  0  0  0  0  0  0  0  0  0  0  0
   -6.4857    5.3698   -1.1646 H   0  0  0  0  0  0  0  0  0  0  0  0
   -7.0075    5.8583    0.4460 H   0  0  0  0  0  0  0  0  0  0  0  0
   -4.2667    7.2567    1.0804 H   0  0  0  0  0  0  0  0  0  0  0  0
   -2.2310    7.6407    2.1837 H   0  0  0  0  0  0  0  0  0  0  0  0
   -0.9248    6.4729    1.9256 H   0  0  0  0  0  0  0  0  0  0  0  0
   -1.9351    6.3567    3.3606 H   0  0  0  0  0  0  0  0  0  0  0  0
   -2.2147    3.5937    4.0030 H   0  0  0  0  0  0  0  0  0  0  0  0
   -1.5786   -0.5679    5.2361 H   0  0  0  0  0  0  0  0  0  0  0  0
   -0.9365    0.3739    3.8802 H   0  0  0  0  0  0  0  0  0  0  0  0
   -2.4658    0.8234    4.6182 H   0  0  0  0  0  0  0  0  0  0  0  0
   -1.1821    0.0770    7.4819 H   0  0  0  0  0  0  0  0  0  0  0  0
   -0.9043    0.8320    9.8030 H   0  0  0  0  0  0  0  0  0  0  0  0
    0.8559    0.8358    9.7188 H   0  0  0  0  0  0  0  0  0  0  0  0
    0.0000    2.3110   10.1625 H   0  0  0  0  0  0  0  0  0  0  0  0
    0.9747    3.6455    8.3522 H   0  0  0  0  0  0  0  0  0  0  0  0
    1.3840    5.2495    6.6894 H   0  0  0  0  0  0  0  0  0  0  0  0
    0.4141    5.1960    5.2082 H   0  0  0  0  0  0  0  0  0  0  0  0
    1.9931    4.4263    5.2506 H   0  0  0  0  0  0  0  0  0  0  0  0
    1.8010    2.2188    3.5760 H   0  0  0  0  0  0  0  0  0  0  0  0
    3.5073    3.5455    2.2564 H   0  0  0  0  0  0  0  0  0  0  0  0
    6.1126    1.9233   -1.5689 H   0  0  0  0  0  0  0  0  0  0  0  0
    5.2346    0.4167   -1.8845 H   0  0  0  0  0  0  0  0  0  0  0  0
    5.6527   -0.3267    0.4220 H   0  0  0  0  0  0  0  0  0  0  0  0
    7.1735    0.0067   -0.3986 H   0  0  0  0  0  0  0  0  0  0  0  0
    7.7175    1.6960    1.0787 H   0  0  0  0  0  0  0  0  0  0  0  0
    6.4659    0.9987    2.0968 H   0  0  0  0  0  0  0  0  0  0  0  0
    5.8988    3.2995    1.9935 H   0  0  0  0  0  0  0  0  0  0  0  0
    6.3242    3.4191    0.2864 H   0  0  0  0  0  0  0  0  0  0  0  0
  1  2  2  0  0  0  0
  2  3  1  0  0  0  0
  3 74  1  0  0  0  0
  4  2  1  0  0  0  0
  5  4  1  0  0  0  0
  6  7  1  0  0  0  0
  6  5  2  0  0  0  0
  7 30  1  0  0  0  0
  8  9  1  0  0  0  0
  8  7  2  0  0  0  0
  9 19  2  0  0  0  0
 10 17  1  0  0  0  0
 10  9  1  0  0  0  0
 11 10  2  0  0  0  0
 12 11  1  0  0  0  0
 12 78  1  0  0  0  0
 13 14  2  0  0  0  0
 13 11  1  0  0  0  0
 14 16  1  0  0  0  0
 15 80  1  0  0  0  0
 15 81  1  0  0  0  0
 15 14  1  0  0  0  0
 16 83  1  0  0  0  0
 16 17  2  0  0  0  0
 17 18  1  0  0  0  0
 18 86  1  0  0  0  0
 18 85  1  0  0  0  0
 18 84  1  0  0  0  0
 19 87  1  0  0  0  0
 19 20  1  0  0  0  0
 20 21  1  0  0  0  0
 21 28  1  0  0  0  0
 22 21  2  0  0  0  0
 22 24  1  0  0  0  0
 23 89  1  0  0  0  0
 23 22  1  0  0  0  0
 24 25  2  0  0  0  0
 25 27  1  0  0  0  0
 25 26  1  0  0  0  0
 26 94  1  0  0  0  0
 26 92  1  0  0  0  0
 27 95  1  0  0  0  0
 28 29  1  0  0  0  0
 28 27  2  0  0  0  0
 29 96  1  0  0  0  0
 30 20  2  0  0  0  0
 30 99  1  0  0  0  0
 31  6  1  0  0  0  0
 32 31  2  0  0  0  0
 32 33  1  0  0  0  0
 33 38  2  0  0  0  0
 34 33  1  0  0  0  0
 34102  1  0  0  0  0
 35103  1  0  0  0  0
 35 34  1  0  0  0  0
 36 37  1  0  0  0  0
 36 35  1  0  0  0  0
 37 32  1  0  0  0  0
 38  5  1  0  0  0  0
 38 39  1  0  0  0  0
 39 69  2  0  0  0  0
 39 40  1  0  0  0  0
 40 42  2  0  0  0  0
 41  2  1  0  0  0  0
 41 40  1  0  0  0  0
 42 67  1  0  0  0  0
 42 43  1  0  0  0  0
 43 66  1  0  0  0  0
 44 43  2  0  0  0  0
 44 45  1  0  0  0  0
 45 55  2  0  0  0  0
 46 53  1  0  0  0  0
 46 45  1  0  0  0  0
 47 46  2  0  0  0  0
 48 47  1  0  0  0  0
 48110  1  0  0  0  0
 49 50  2  0  0  0  0
 49 47  1  0  0  0  0
 50 52  1  0  0  0  0
 51 50  1  0  0  0  0
 51116  1  0  0  0  0
 52117  1  0  0  0  0
 52 53  2  0  0  0  0
 53 54  1  0  0  0  0
 54120  1  0  0  0  0
 55 56  1  0  0  0  0
 55121  1  0  0  0  0
 56 57  1  0  0  0  0
 57 58  2  0  0  0  0
 57 64  1  0  0  0  0
 58 60  1  0  0  0  0
 59122  1  0  0  0  0
 59 58  1  0  0  0  0
 60125  1  0  0  0  0
 60 61  2  0  0  0  0
 61 62  1  0  0  0  0
 62127  1  0  0  0  0
 62126  1  0  0  0  0
 62128  1  0  0  0  0
 63 61  1  0  0  0  0
 63129  1  0  0  0  0
 64 63  2  0  0  0  0
 65 64  1  0  0  0  0
 65130  1  0  0  0  0
 66133  1  0  0  0  0
 66 56  2  0  0  0  0
 67134  1  0  0  0  0
 68 73  1  0  0  0  0
 68 67  2  0  0  0  0
 69 68  1  0  0  0  0
 70 69  1  0  0  0  0
 70 71  1  0  0  0  0
 71137  1  0  0  0  0
 71 72  1  0  0  0  0
 72140  1  0  0  0  0
 73 72  1  0  0  0  0
 73141  1  0  0  0  0
 75  8  1  0  0  0  0
 76 12  1  0  0  0  0
 77 12  1  0  0  0  0
 79 13  1  0  0  0  0
 82 15  1  0  0  0  0
 88 23  1  0  0  0  0
 90 23  1  0  0  0  0
 91 24  1  0  0  0  0
 93 26  1  0  0  0  0
 97 29  1  0  0  0  0
 98 29  1  0  0  0  0
100 31  1  0  0  0  0
101 34  1  0  0  0  0
104 35  1  0  0  0  0
105 36  1  0  0  0  0
106 36  1  0  0  0  0
107 37  1  0  0  0  0
108 37  1  0  0  0  0
109 44  1  0  0  0  0
111 48  1  0  0  0  0
112 48  1  0  0  0  0
113 49  1  0  0  0  0
114 51  1  0  0  0  0
115 51  1  0  0  0  0
118 54  1  0  0  0  0
119 54  1  0  0  0  0
123 59  1  0  0  0  0
124 59  1  0  0  0  0
131 65  1  0  0  0  0
132 65  1  0  0  0  0
135 70  1  0  0  0  0
136 70  1  0  0  0  0
138 71  1  0  0  0  0
139 72  1  0  0  0  0
142 73  1  0  0  0  0
M  END
$$$$
