Standard file
 OpenBabel12142210053D

 84 90  0  0  0  0  0  0  0  0999 V2000
    1.8017   -1.6599    0.8557 O   0  0  0  0  0  0  0  0  0  0  0  0
    0.7658   -0.7967    0.3077 P   0  0  0  0  0  0  0  0  0  0  0  0
    1.2580    0.3196   -0.7096 O   0  0  0  0  0  0  0  0  0  0  0  0
   -0.3803   -1.4962   -0.5917 O   0  0  0  0  0  0  0  0  0  0  0  0
   -1.2724   -2.2842    0.1284 C   0  0  0  0  0  0  0  0  0  0  0  0
   -1.2601   -3.6672   -0.0171 C   0  0  0  0  0  0  0  0  0  0  0  0
   -0.3726   -4.3251   -1.0428 C   0  0  0  0  0  0  0  0  0  0  0  0
    1.0767   -4.1682   -0.6837 C   0  0  0  0  0  0  0  0  0  0  0  0
    1.5577   -4.7077    0.5025 C   0  0  0  0  0  0  0  0  0  0  0  0
    2.8831   -4.5336    0.8629 C   0  0  0  0  0  0  0  0  0  0  0  0
    3.3806   -5.1452    2.1433 C   0  0  0  0  0  0  0  0  0  0  0  0
    4.4457   -4.5195    2.6527 F   0  0  0  0  0  0  0  0  0  0  0  0
    2.4473   -5.1732    3.1046 F   0  0  0  0  0  0  0  0  0  0  0  0
    3.7558   -6.4315    1.9608 F   0  0  0  0  0  0  0  0  0  0  0  0
    3.7566   -3.8187    0.0575 C   0  0  0  0  0  0  0  0  0  0  0  0
    3.2683   -3.2834   -1.1216 C   0  0  0  0  0  0  0  0  0  0  0  0
    4.1337   -2.4157   -1.9866 C   0  0  0  0  0  0  0  0  0  0  0  0
    3.7324   -1.1196   -1.9310 F   0  0  0  0  0  0  0  0  0  0  0  0
    5.4235   -2.4224   -1.6496 F   0  0  0  0  0  0  0  0  0  0  0  0
    4.0711   -2.7519   -3.2853 F   0  0  0  0  0  0  0  0  0  0  0  0
    1.9433   -3.4567   -1.4972 C   0  0  0  0  0  0  0  0  0  0  0  0
   -2.1099   -4.4062    0.7889 C   0  0  0  0  0  0  0  0  0  0  0  0
   -2.9079   -3.8137    1.7603 C   0  0  0  0  0  0  0  0  0  0  0  0
   -2.9424   -2.4258    1.8663 C   0  0  0  0  0  0  0  0  0  0  0  0
   -3.6926   -1.7621    2.9879 C   0  0  0  0  0  0  0  0  0  0  0  0
   -4.8363   -2.6283    3.5021 C   0  0  0  0  0  0  0  0  0  0  0  0
   -4.2890   -4.0005    3.8716 C   0  0  0  0  0  0  0  0  0  0  0  0
   -3.7687   -4.6996    2.6208 C   0  0  0  0  0  0  0  0  0  0  0  0
   -2.1743   -1.6576    0.9839 C   0  0  0  0  0  0  0  0  0  0  0  0
   -2.3123   -0.1850    0.8903 C   0  0  0  0  0  0  0  0  0  0  0  0
   -1.2075    0.6170    1.1488 C   0  0  0  0  0  0  0  0  0  0  0  0
    0.0000    0.0000    1.4543 O   0  0  0  0  0  0  0  0  0  0  0  0
   -1.2957    2.0034    1.1096 C   0  0  0  0  0  0  0  0  0  0  0  0
   -0.1064    2.8796    1.4152 C   0  0  0  0  0  0  0  0  0  0  0  0
    0.0873    3.8931    0.3276 C   0  0  0  0  0  0  0  0  0  0  0  0
   -0.0599    5.2526    0.5637 C   0  0  0  0  0  0  0  0  0  0  0  0
    0.0910    6.1656   -0.4732 C   0  0  0  0  0  0  0  0  0  0  0  0
   -0.0829    7.6269   -0.1599 C   0  0  0  0  0  0  0  0  0  0  0  0
   -1.2777    7.8753    0.4083 F   0  0  0  0  0  0  0  0  0  0  0  0
    0.8407    8.0669    0.7135 F   0  0  0  0  0  0  0  0  0  0  0  0
    0.0000    8.4162   -1.2353 F   0  0  0  0  0  0  0  0  0  0  0  0
    0.3908    5.7471   -1.7594 C   0  0  0  0  0  0  0  0  0  0  0  0
    0.5338    4.3854   -1.9881 C   0  0  0  0  0  0  0  0  0  0  0  0
    0.8734    3.8706   -3.3609 C   0  0  0  0  0  0  0  0  0  0  0  0
    0.7910    4.8074   -4.3132 F   0  0  0  0  0  0  0  0  0  0  0  0
    0.0608    2.8688   -3.7385 F   0  0  0  0  0  0  0  0  0  0  0  0
    2.1241    3.3780   -3.4150 F   0  0  0  0  0  0  0  0  0  0  0  0
    0.3851    3.4655   -0.9622 C   0  0  0  0  0  0  0  0  0  0  0  0
   -2.5163    2.5614    0.7658 C   0  0  0  0  0  0  0  0  0  0  0  0
   -3.6102    1.7836    0.4080 C   0  0  0  0  0  0  0  0  0  0  0  0
   -3.5109    0.3952    0.4530 C   0  0  0  0  0  0  0  0  0  0  0  0
   -4.6427   -0.4818   -0.0128 C   0  0  0  0  0  0  0  0  0  0  0  0
   -5.6213    0.2794   -0.9004 C   0  0  0  0  0  0  0  0  0  0  0  0
   -6.0541    1.5507   -0.1835 C   0  0  0  0  0  0  0  0  0  0  0  0
   -4.8566    2.4849   -0.0613 C   0  0  0  0  0  0  0  0  0  0  0  0
    2.1072    0.0959   -1.0927 H   0  0  0  0  0  0  0  0  0  0  0  0
   -0.5571   -3.8711   -2.0182 H   0  0  0  0  0  0  0  0  0  0  0  0
   -0.6231   -5.3865   -1.0981 H   0  0  0  0  0  0  0  0  0  0  0  0
    0.8880   -5.2429    1.1594 H   0  0  0  0  0  0  0  0  0  0  0  0
    4.7818   -3.6633    0.3545 H   0  0  0  0  0  0  0  0  0  0  0  0
    1.5872   -3.0152   -2.4169 H   0  0  0  0  0  0  0  0  0  0  0  0
   -2.1305   -5.4815    0.6825 H   0  0  0  0  0  0  0  0  0  0  0  0
   -2.9765   -1.6060    3.8026 H   0  0  0  0  0  0  0  0  0  0  0  0
   -4.0466   -0.7750    2.6941 H   0  0  0  0  0  0  0  0  0  0  0  0
   -5.2971   -2.1543    4.3703 H   0  0  0  0  0  0  0  0  0  0  0  0
   -5.6006   -2.7358    2.7290 H   0  0  0  0  0  0  0  0  0  0  0  0
   -5.0641   -4.6118    4.3369 H   0  0  0  0  0  0  0  0  0  0  0  0
   -3.4773   -3.8814    4.5916 H   0  0  0  0  0  0  0  0  0  0  0  0
   -4.6190   -5.0288    2.0135 H   0  0  0  0  0  0  0  0  0  0  0  0
   -3.2068   -5.5940    2.8974 H   0  0  0  0  0  0  0  0  0  0  0  0
    0.7815    2.2498    1.4978 H   0  0  0  0  0  0  0  0  0  0  0  0
   -0.2613    3.3814    2.3729 H   0  0  0  0  0  0  0  0  0  0  0  0
   -0.2935    5.6124    1.5551 H   0  0  0  0  0  0  0  0  0  0  0  0
    0.5056    6.4594   -2.5614 H   0  0  0  0  0  0  0  0  0  0  0  0
    0.5009    2.4109   -1.1619 H   0  0  0  0  0  0  0  0  0  0  0  0
   -2.6082    3.6378    0.7366 H   0  0  0  0  0  0  0  0  0  0  0  0
   -4.2312   -1.3416   -0.5462 H   0  0  0  0  0  0  0  0  0  0  0  0
   -5.1900   -0.8722    0.8488 H   0  0  0  0  0  0  0  0  0  0  0  0
   -5.1421    0.5397   -1.8459 H   0  0  0  0  0  0  0  0  0  0  0  0
   -6.4831   -0.3527   -1.1200 H   0  0  0  0  0  0  0  0  0  0  0  0
   -6.4311    1.2959    0.8092 H   0  0  0  0  0  0  0  0  0  0  0  0
   -6.8559    2.0499   -0.7295 H   0  0  0  0  0  0  0  0  0  0  0  0
   -4.6447    2.9271   -1.0400 H   0  0  0  0  0  0  0  0  0  0  0  0
   -5.0841    3.3083    0.6194 H   0  0  0  0  0  0  0  0  0  0  0  0
  2  1  2  0  0  0  0
  2 32  1  0  0  0  0
  3  2  1  0  0  0  0
  4  5  1  0  0  0  0
  4  2  1  0  0  0  0
  5 29  1  0  0  0  0
  6  5  2  0  0  0  0
  6 22  1  0  0  0  0
  7  8  1  0  0  0  0
  7  6  1  0  0  0  0
  8  9  1  0  0  0  0
  9 10  2  0  0  0  0
  9 59  1  0  0  0  0
 10 11  1  0  0  0  0
 11 12  1  0  0  0  0
 11 13  1  0  0  0  0
 14 11  1  0  0  0  0
 15 60  1  0  0  0  0
 15 10  1  0  0  0  0
 16 15  2  0  0  0  0
 17 18  1  0  0  0  0
 17 19  1  0  0  0  0
 17 16  1  0  0  0  0
 20 17  1  0  0  0  0
 21 16  1  0  0  0  0
 21  8  2  0  0  0  0
 22 23  2  0  0  0  0
 23 24  1  0  0  0  0
 23 28  1  0  0  0  0
 24 25  1  0  0  0  0
 25 26  1  0  0  0  0
 25 63  1  0  0  0  0
 26 27  1  0  0  0  0
 26 65  1  0  0  0  0
 27 67  1  0  0  0  0
 27 68  1  0  0  0  0
 28 70  1  0  0  0  0
 28 27  1  0  0  0  0
 29 24  2  0  0  0  0
 30 29  1  0  0  0  0
 30 31  1  0  0  0  0
 31 32  1  0  0  0  0
 33 31  2  0  0  0  0
 33 34  1  0  0  0  0
 34 71  1  0  0  0  0
 34 72  1  0  0  0  0
 35 36  1  0  0  0  0
 35 34  1  0  0  0  0
 36 73  1  0  0  0  0
 37 38  1  0  0  0  0
 37 36  2  0  0  0  0
 38 39  1  0  0  0  0
 38 40  1  0  0  0  0
 41 38  1  0  0  0  0
 42 37  1  0  0  0  0
 43 42  2  0  0  0  0
 43 48  1  0  0  0  0
 44 43  1  0  0  0  0
 45 44  1  0  0  0  0
 46 44  1  0  0  0  0
 47 44  1  0  0  0  0
 48 35  2  0  0  0  0
 49 33  1  0  0  0  0
 50 51  1  0  0  0  0
 50 49  2  0  0  0  0
 51 30  2  0  0  0  0
 52 51  1  0  0  0  0
 52 78  1  0  0  0  0
 53 54  1  0  0  0  0
 53 52  1  0  0  0  0
 54 55  1  0  0  0  0
 54 81  1  0  0  0  0
 55 50  1  0  0  0  0
 55 84  1  0  0  0  0
 56  3  1  0  0  0  0
 57  7  1  0  0  0  0
 58  7  1  0  0  0  0
 61 21  1  0  0  0  0
 62 22  1  0  0  0  0
 64 25  1  0  0  0  0
 66 26  1  0  0  0  0
 69 28  1  0  0  0  0
 74 42  1  0  0  0  0
 75 48  1  0  0  0  0
 76 49  1  0  0  0  0
 77 52  1  0  0  0  0
 79 53  1  0  0  0  0
 80 53  1  0  0  0  0
 82 54  1  0  0  0  0
 83 55  1  0  0  0  0
M  END
$$$$
