Standard file
 OpenBabel12142210053D

 88 98  0  0  0  0  0  0  0  0999 V2000
   -0.8474    2.1017   -1.9040 O   0  0  0  0  0  0  0  0  0  0  0  0
    0.2288    1.2285   -1.4815 P   0  0  0  0  0  0  0  0  0  0  0  0
    1.4844    1.2001   -2.4524 O   0  0  0  0  0  0  0  0  0  0  0  0
   -0.2782   -0.2834   -1.3102 O   0  0  0  0  0  0  0  0  0  0  0  0
    0.5392   -1.1860   -0.6417 C   0  0  0  0  0  0  0  0  0  0  0  0
    1.1392   -2.2166   -1.3988 C   0  0  0  0  0  0  0  0  0  0  0  0
    0.8610   -2.2820   -2.8780 C   0  0  0  0  0  0  0  0  0  0  0  0
    1.1555   -3.6325   -3.4732 C   0  0  0  0  0  0  0  0  0  0  0  0
    0.2079   -4.6599   -3.3234 C   0  0  0  0  0  0  0  0  0  0  0  0
   -0.9749   -4.5111   -2.5497 C   0  0  0  0  0  0  0  0  0  0  0  0
   -1.8782   -5.5234   -2.4338 C   0  0  0  0  0  0  0  0  0  0  0  0
   -1.6696   -6.7560   -3.0845 C   0  0  0  0  0  0  0  0  0  0  0  0
   -0.5443   -6.9487   -3.8229 C   0  0  0  0  0  0  0  0  0  0  0  0
    0.4269   -5.9236   -3.9569 C   0  0  0  0  0  0  0  0  0  0  0  0
    1.5892   -6.1274   -4.6918 C   0  0  0  0  0  0  0  0  0  0  0  0
    2.5639   -5.1420   -4.7930 C   0  0  0  0  0  0  0  0  0  0  0  0
    2.3558   -3.8728   -4.1621 C   0  0  0  0  0  0  0  0  0  0  0  0
    3.4073   -2.9208   -4.2583 C   0  0  0  0  0  0  0  0  0  0  0  0
    4.5531   -3.1885   -4.9429 C   0  0  0  0  0  0  0  0  0  0  0  0
    4.7354   -4.4283   -5.5879 C   0  0  0  0  0  0  0  0  0  0  0  0
    3.7659   -5.3777   -5.5090 C   0  0  0  0  0  0  0  0  0  0  0  0
    1.9473   -3.1122   -0.7517 C   0  0  0  0  0  0  0  0  0  0  0  0
    2.2159   -2.9988    0.6276 C   0  0  0  0  0  0  0  0  0  0  0  0
    1.6073   -1.9602    1.3789 C   0  0  0  0  0  0  0  0  0  0  0  0
    1.9457   -1.8220    2.7415 C   0  0  0  0  0  0  0  0  0  0  0  0
    2.8097   -2.6974    3.3391 C   0  0  0  0  0  0  0  0  0  0  0  0
    3.3782   -3.7499    2.6068 C   0  0  0  0  0  0  0  0  0  0  0  0
    3.0924   -3.8923    1.2782 C   0  0  0  0  0  0  0  0  0  0  0  0
    0.7154   -1.0688    0.7189 C   0  0  0  0  0  0  0  0  0  0  0  0
    0.0000    0.0000    1.4456 C   0  0  0  0  0  0  0  0  0  0  0  0
    0.1484    1.3017    1.0265 C   0  0  0  0  0  0  0  0  0  0  0  0
    0.9624    1.5525   -0.0781 O   0  0  0  0  0  0  0  0  0  0  0  0
   -0.4887    2.3879    1.6600 C   0  0  0  0  0  0  0  0  0  0  0  0
   -0.2713    3.7720    1.1102 C   0  0  0  0  0  0  0  0  0  0  0  0
   -1.2261    4.7923    1.6683 C   0  0  0  0  0  0  0  0  0  0  0  0
   -2.4584    5.0139    1.0295 C   0  0  0  0  0  0  0  0  0  0  0  0
   -2.9006    4.2578   -0.0907 C   0  0  0  0  0  0  0  0  0  0  0  0
   -4.1012    4.5094   -0.6828 C   0  0  0  0  0  0  0  0  0  0  0  0
   -4.9460    5.5320   -0.2067 C   0  0  0  0  0  0  0  0  0  0  0  0
   -4.5681    6.2744    0.8677 C   0  0  0  0  0  0  0  0  0  0  0  0
   -3.3309    6.0380    1.5203 C   0  0  0  0  0  0  0  0  0  0  0  0
   -2.9563    6.7866    2.6302 C   0  0  0  0  0  0  0  0  0  0  0  0
   -1.7666    6.5378    3.3037 C   0  0  0  0  0  0  0  0  0  0  0  0
   -0.8895    5.5111    2.8281 C   0  0  0  0  0  0  0  0  0  0  0  0
    0.2873    5.2595    3.5854 C   0  0  0  0  0  0  0  0  0  0  0  0
    0.5873    5.9834    4.6987 C   0  0  0  0  0  0  0  0  0  0  0  0
   -0.2644    7.0163    5.1394 C   0  0  0  0  0  0  0  0  0  0  0  0
   -1.4119    7.2796    4.4599 C   0  0  0  0  0  0  0  0  0  0  0  0
   -1.2743    2.1236    2.7501 C   0  0  0  0  0  0  0  0  0  0  0  0
   -1.4906    0.8065    3.2038 C   0  0  0  0  0  0  0  0  0  0  0  0
   -0.8664   -0.2805    2.5386 C   0  0  0  0  0  0  0  0  0  0  0  0
   -1.1669   -1.5941    2.9553 C   0  0  0  0  0  0  0  0  0  0  0  0
   -2.0065   -1.8168    4.0114 C   0  0  0  0  0  0  0  0  0  0  0  0
   -2.5879   -0.7414    4.6987 C   0  0  0  0  0  0  0  0  0  0  0  0
   -2.3410    0.5413    4.2978 C   0  0  0  0  0  0  0  0  0  0  0  0
    2.3051    0.9482   -2.0285 H   0  0  0  0  0  0  0  0  0  0  0  0
    1.4378   -1.5039   -3.3835 H   0  0  0  0  0  0  0  0  0  0  0  0
   -0.1869   -2.0241   -3.0479 H   0  0  0  0  0  0  0  0  0  0  0  0
   -1.1570   -3.5869   -2.0246 H   0  0  0  0  0  0  0  0  0  0  0  0
   -2.7679   -5.3881   -1.8361 H   0  0  0  0  0  0  0  0  0  0  0  0
   -2.4058   -7.5400   -2.9846 H   0  0  0  0  0  0  0  0  0  0  0  0
   -0.3615   -7.8909   -4.3199 H   0  0  0  0  0  0  0  0  0  0  0  0
    1.7450   -7.0778   -5.1834 H   0  0  0  0  0  0  0  0  0  0  0  0
    3.3121   -1.9676   -3.7620 H   0  0  0  0  0  0  0  0  0  0  0  0
    5.3382   -2.4481   -4.9949 H   0  0  0  0  0  0  0  0  0  0  0  0
    5.6491   -4.6137   -6.1329 H   0  0  0  0  0  0  0  0  0  0  0  0
    3.8922   -6.3394   -5.9857 H   0  0  0  0  0  0  0  0  0  0  0  0
    2.4083   -3.9171   -1.3047 H   0  0  0  0  0  0  0  0  0  0  0  0
    1.5194   -1.0086    3.3082 H   0  0  0  0  0  0  0  0  0  0  0  0
    3.0617   -2.5798    4.3825 H   0  0  0  0  0  0  0  0  0  0  0  0
    4.0507   -4.4374    3.0979 H   0  0  0  0  0  0  0  0  0  0  0  0
    3.5387   -4.6875    0.6989 H   0  0  0  0  0  0  0  0  0  0  0  0
    0.7616    4.0697    1.3101 H   0  0  0  0  0  0  0  0  0  0  0  0
   -0.3624    3.7267    0.0233 H   0  0  0  0  0  0  0  0  0  0  0  0
   -2.2915    3.4621   -0.4862 H   0  0  0  0  0  0  0  0  0  0  0  0
   -4.4129    3.9187   -1.5312 H   0  0  0  0  0  0  0  0  0  0  0  0
   -5.8898    5.7151   -0.6995 H   0  0  0  0  0  0  0  0  0  0  0  0
   -5.2043    7.0590    1.2528 H   0  0  0  0  0  0  0  0  0  0  0  0
   -3.6114    7.5700    2.9859 H   0  0  0  0  0  0  0  0  0  0  0  0
    0.9495    4.4604    3.2907 H   0  0  0  0  0  0  0  0  0  0  0  0
    1.4855    5.7672    5.2593 H   0  0  0  0  0  0  0  0  0  0  0  0
    0.0000    7.5830    6.0201 H   0  0  0  0  0  0  0  0  0  0  0  0
   -2.0856    8.0575    4.7905 H   0  0  0  0  0  0  0  0  0  0  0  0
   -1.7687    2.9336    3.2649 H   0  0  0  0  0  0  0  0  0  0  0  0
   -0.7325   -2.4275    2.4246 H   0  0  0  0  0  0  0  0  0  0  0  0
   -2.2297   -2.8274    4.3198 H   0  0  0  0  0  0  0  0  0  0  0  0
   -3.2414   -0.9363    5.5361 H   0  0  0  0  0  0  0  0  0  0  0  0
   -2.8002    1.3771    4.8052 H   0  0  0  0  0  0  0  0  0  0  0  0
  1  2  2  0  0  0  0
  2  4  1  0  0  0  0
  2 32  1  0  0  0  0
  3 56  1  0  0  0  0
  3  2  1  0  0  0  0
  4  5  1  0  0  0  0
  5 29  1  0  0  0  0
  6 22  1  0  0  0  0
  6  5  2  0  0  0  0
  7  6  1  0  0  0  0
  8  9  1  0  0  0  0
  8  7  1  0  0  0  0
  9 10  1  0  0  0  0
 10 11  2  0  0  0  0
 10 59  1  0  0  0  0
 11 60  1  0  0  0  0
 12 61  1  0  0  0  0
 12 11  1  0  0  0  0
 13 12  2  0  0  0  0
 14 13  1  0  0  0  0
 14  9  2  0  0  0  0
 15 14  1  0  0  0  0
 16 15  2  0  0  0  0
 16 17  1  0  0  0  0
 17  8  2  0  0  0  0
 18 17  1  0  0  0  0
 18 64  1  0  0  0  0
 19 18  2  0  0  0  0
 20 21  2  0  0  0  0
 20 19  1  0  0  0  0
 21 16  1  0  0  0  0
 22 23  2  0  0  0  0
 23 28  1  0  0  0  0
 23 24  1  0  0  0  0
 24 25  1  0  0  0  0
 25 69  1  0  0  0  0
 25 26  2  0  0  0  0
 26 70  1  0  0  0  0
 27 71  1  0  0  0  0
 27 26  1  0  0  0  0
 28 27  2  0  0  0  0
 29 24  2  0  0  0  0
 29 30  1  0  0  0  0
 30 51  1  0  0  0  0
 31 30  2  0  0  0  0
 31 33  1  0  0  0  0
 32 31  1  0  0  0  0
 33 49  2  0  0  0  0
 34 73  1  0  0  0  0
 34 33  1  0  0  0  0
 34 35  1  0  0  0  0
 35 44  1  0  0  0  0
 36 41  1  0  0  0  0
 36 35  2  0  0  0  0
 37 36  1  0  0  0  0
 38 39  1  0  0  0  0
 38 37  2  0  0  0  0
 39 40  2  0  0  0  0
 40 78  1  0  0  0  0
 40 41  1  0  0  0  0
 41 42  2  0  0  0  0
 42 79  1  0  0  0  0
 42 43  1  0  0  0  0
 43 48  1  0  0  0  0
 44 43  2  0  0  0  0
 44 45  1  0  0  0  0
 45 46  2  0  0  0  0
 46 47  1  0  0  0  0
 46 81  1  0  0  0  0
 47 82  1  0  0  0  0
 48 83  1  0  0  0  0
 48 47  2  0  0  0  0
 49 50  1  0  0  0  0
 49 84  1  0  0  0  0
 50 55  1  0  0  0  0
 51 52  1  0  0  0  0
 51 50  2  0  0  0  0
 52 53  2  0  0  0  0
 53 86  1  0  0  0  0
 53 54  1  0  0  0  0
 54 87  1  0  0  0  0
 55 54  2  0  0  0  0
 55 88  1  0  0  0  0
 57  7  1  0  0  0  0
 58  7  1  0  0  0  0
 62 13  1  0  0  0  0
 63 15  1  0  0  0  0
 65 19  1  0  0  0  0
 66 20  1  0  0  0  0
 67 21  1  0  0  0  0
 68 22  1  0  0  0  0
 72 28  1  0  0  0  0
 74 34  1  0  0  0  0
 75 37  1  0  0  0  0
 76 38  1  0  0  0  0
 77 39  1  0  0  0  0
 80 45  1  0  0  0  0
 85 52  1  0  0  0  0
M  END
$$$$
