Standard file
 OpenBabel12142210053D

 82 88  0  0  0  0  0  0  0  0999 V2000
    2.1338    0.8845    0.0165 O   0  0  0  0  0  0  0  0  0  0  0  0
    0.6820    0.7934    0.0315 P   0  0  0  0  0  0  0  0  0  0  0  0
   -0.0827    2.1849    0.1486 O   0  0  0  0  0  0  0  0  0  0  0  0
    0.0821    0.0819   -1.2619 O   0  0  0  0  0  0  0  0  0  0  0  0
   -1.2693   -0.2443   -1.2375 C   0  0  0  0  0  0  0  0  0  0  0  0
   -2.1700    0.5395   -1.9922 C   0  0  0  0  0  0  0  0  0  0  0  0
   -1.6857    1.6817   -2.7799 C   0  0  0  0  0  0  0  0  0  0  0  0
   -2.3342    2.9087   -2.7038 C   0  0  0  0  0  0  0  0  0  0  0  0
   -1.8920    3.9928   -3.4395 C   0  0  0  0  0  0  0  0  0  0  0  0
   -0.7916    3.8916   -4.2825 C   0  0  0  0  0  0  0  0  0  0  0  0
   -0.2759    5.0529   -5.1173 C   0  0  0  0  0  0  0  0  0  0  0  0
   -0.3462    4.6676   -6.6019 C   0  0  0  0  0  0  0  0  0  0  0  0
   -1.0920    6.3330   -4.9184 C   0  0  0  0  0  0  0  0  0  0  0  0
    1.1786    5.3465   -4.7244 C   0  0  0  0  0  0  0  0  0  0  0  0
   -0.1500    2.6570   -4.3537 C   0  0  0  0  0  0  0  0  0  0  0  0
   -0.5814    1.5715   -3.6192 C   0  0  0  0  0  0  0  0  0  0  0  0
   -3.5051    0.2177   -1.9494 C   0  0  0  0  0  0  0  0  0  0  0  0
   -3.9872   -0.8378   -1.1528 C   0  0  0  0  0  0  0  0  0  0  0  0
   -3.0746   -1.6058   -0.3828 C   0  0  0  0  0  0  0  0  0  0  0  0
   -3.5847   -2.6030    0.4749 C   0  0  0  0  0  0  0  0  0  0  0  0
   -4.9269   -2.8583    0.5306 C   0  0  0  0  0  0  0  0  0  0  0  0
   -5.8248   -2.1298   -0.2638 C   0  0  0  0  0  0  0  0  0  0  0  0
   -5.3647   -1.1369   -1.0815 C   0  0  0  0  0  0  0  0  0  0  0  0
   -1.6867   -1.3066   -0.4678 C   0  0  0  0  0  0  0  0  0  0  0  0
   -0.6765   -2.0682    0.2958 C   0  0  0  0  0  0  0  0  0  0  0  0
    0.1405   -1.3795    1.1642 C   0  0  0  0  0  0  0  0  0  0  0  0
    0.0000    0.0000    1.2555 O   0  0  0  0  0  0  0  0  0  0  0  0
    1.1360   -2.0215    1.9328 C   0  0  0  0  0  0  0  0  0  0  0  0
    2.0072   -1.2379    2.8183 C   0  0  0  0  0  0  0  0  0  0  0  0
    3.3830   -1.4303    2.7951 C   0  0  0  0  0  0  0  0  0  0  0  0
    4.2163   -0.6932    3.6158 C   0  0  0  0  0  0  0  0  0  0  0  0
    3.7084    0.2565    4.4938 C   0  0  0  0  0  0  0  0  0  0  0  0
    4.5867    1.0911    5.4125 C   0  0  0  0  0  0  0  0  0  0  0  0
    4.1856    0.8220    6.8699 C   0  0  0  0  0  0  0  0  0  0  0  0
    4.3833    2.5762    5.0814 C   0  0  0  0  0  0  0  0  0  0  0  0
    6.0754    0.7681    5.2604 C   0  0  0  0  0  0  0  0  0  0  0  0
    2.3272    0.4364    4.5151 C   0  0  0  0  0  0  0  0  0  0  0  0
    1.4888   -0.2907    3.6954 C   0  0  0  0  0  0  0  0  0  0  0  0
    1.2770   -3.3825    1.8046 C   0  0  0  0  0  0  0  0  0  0  0  0
    0.4865   -4.1283    0.9099 C   0  0  0  0  0  0  0  0  0  0  0  0
   -0.4972   -3.4684    0.1268 C   0  0  0  0  0  0  0  0  0  0  0  0
   -1.2204   -4.2175   -0.8250 C   0  0  0  0  0  0  0  0  0  0  0  0
   -1.0123   -5.5620   -0.9616 C   0  0  0  0  0  0  0  0  0  0  0  0
   -0.0713   -6.2227   -0.1580 C   0  0  0  0  0  0  0  0  0  0  0  0
    0.6659   -5.5194    0.7521 C   0  0  0  0  0  0  0  0  0  0  0  0
    0.5443    2.8663    0.3830 H   0  0  0  0  0  0  0  0  0  0  0  0
   -3.1830    3.0208   -2.0446 H   0  0  0  0  0  0  0  0  0  0  0  0
   -2.4250    4.9247   -3.3411 H   0  0  0  0  0  0  0  0  0  0  0  0
   -1.3714    4.4331   -6.8811 H   0  0  0  0  0  0  0  0  0  0  0  0
    0.2714    3.8000   -6.8154 H   0  0  0  0  0  0  0  0  0  0  0  0
    0.0000    5.4929   -7.2205 H   0  0  0  0  0  0  0  0  0  0  0  0
   -1.0570    6.6627   -3.8827 H   0  0  0  0  0  0  0  0  0  0  0  0
   -0.6776    7.1265   -5.5371 H   0  0  0  0  0  0  0  0  0  0  0  0
   -2.1288    6.1863   -5.2118 H   0  0  0  0  0  0  0  0  0  0  0  0
    1.5620    6.1826   -5.3058 H   0  0  0  0  0  0  0  0  0  0  0  0
    1.2386    5.6032   -3.6689 H   0  0  0  0  0  0  0  0  0  0  0  0
    1.8188    4.4871   -4.9012 H   0  0  0  0  0  0  0  0  0  0  0  0
    0.7080    2.5301   -4.9965 H   0  0  0  0  0  0  0  0  0  0  0  0
   -0.0668    0.6267   -3.7061 H   0  0  0  0  0  0  0  0  0  0  0  0
   -4.2084    0.7926   -2.5342 H   0  0  0  0  0  0  0  0  0  0  0  0
   -2.9013   -3.1601    1.0970 H   0  0  0  0  0  0  0  0  0  0  0  0
   -5.3041   -3.6235    1.1927 H   0  0  0  0  0  0  0  0  0  0  0  0
   -6.8805   -2.3519   -0.2136 H   0  0  0  0  0  0  0  0  0  0  0  0
   -6.0497   -0.5559   -1.6822 H   0  0  0  0  0  0  0  0  0  0  0  0
    3.8073   -2.1471    2.1073 H   0  0  0  0  0  0  0  0  0  0  0  0
    5.2774   -0.8714    3.5529 H   0  0  0  0  0  0  0  0  0  0  0  0
    3.1506    1.0958    7.0536 H   0  0  0  0  0  0  0  0  0  0  0  0
    4.8153    1.3982    7.5447 H   0  0  0  0  0  0  0  0  0  0  0  0
    4.3050   -0.2339    7.1035 H   0  0  0  0  0  0  0  0  0  0  0  0
    3.3535    2.8812    5.2450 H   0  0  0  0  0  0  0  0  0  0  0  0
    5.0249    3.1918    5.7088 H   0  0  0  0  0  0  0  0  0  0  0  0
    4.6327    2.7646    4.0395 H   0  0  0  0  0  0  0  0  0  0  0  0
    6.6533    1.3938    5.9380 H   0  0  0  0  0  0  0  0  0  0  0  0
    6.4160    0.9666    4.2471 H   0  0  0  0  0  0  0  0  0  0  0  0
    6.2780   -0.2711    5.5088 H   0  0  0  0  0  0  0  0  0  0  0  0
    1.8868    1.1608    5.1843 H   0  0  0  0  0  0  0  0  0  0  0  0
    0.4216   -0.1334    3.7432 H   0  0  0  0  0  0  0  0  0  0  0  0
    2.0214   -3.8965    2.3952 H   0  0  0  0  0  0  0  0  0  0  0  0
   -1.9381   -3.7136   -1.4542 H   0  0  0  0  0  0  0  0  0  0  0  0
   -1.5714   -6.1235   -1.6954 H   0  0  0  0  0  0  0  0  0  0  0  0
    0.0736   -7.2867   -0.2740 H   0  0  0  0  0  0  0  0  0  0  0  0
    1.4077   -6.0152    1.3615 H   0  0  0  0  0  0  0  0  0  0  0  0
  1  2  2  0  0  0  0
  2  3  1  0  0  0  0
  2 27  1  0  0  0  0
  3 46  1  0  0  0  0
  4  5  1  0  0  0  0
  4  2  1  0  0  0  0
  5 24  1  0  0  0  0
  6 17  1  0  0  0  0
  6  5  2  0  0  0  0
  7  8  1  0  0  0  0
  7  6  1  0  0  0  0
  8 47  1  0  0  0  0
  9 48  1  0  0  0  0
  9  8  2  0  0  0  0
 10  9  1  0  0  0  0
 11 13  1  0  0  0  0
 11 14  1  0  0  0  0
 11 10  1  0  0  0  0
 12 11  1  0  0  0  0
 13 52  1  0  0  0  0
 14 56  1  0  0  0  0
 15 10  2  0  0  0  0
 15 16  1  0  0  0  0
 16  7  2  0  0  0  0
 17 18  2  0  0  0  0
 18 23  1  0  0  0  0
 18 19  1  0  0  0  0
 19 20  1  0  0  0  0
 20 21  2  0  0  0  0
 20 61  1  0  0  0  0
 21 62  1  0  0  0  0
 22 63  1  0  0  0  0
 22 21  1  0  0  0  0
 23 22  2  0  0  0  0
 24 19  2  0  0  0  0
 24 25  1  0  0  0  0
 25 26  1  0  0  0  0
 26 27  1  0  0  0  0
 26 28  2  0  0  0  0
 28 29  1  0  0  0  0
 29 38  1  0  0  0  0
 30 29  2  0  0  0  0
 30 31  1  0  0  0  0
 31 32  2  0  0  0  0
 32 37  1  0  0  0  0
 32 33  1  0  0  0  0
 33 34  1  0  0  0  0
 34 67  1  0  0  0  0
 34 69  1  0  0  0  0
 34 68  1  0  0  0  0
 35 70  1  0  0  0  0
 35 33  1  0  0  0  0
 35 71  1  0  0  0  0
 36 33  1  0  0  0  0
 36 75  1  0  0  0  0
 36 73  1  0  0  0  0
 37 76  1  0  0  0  0
 38 77  1  0  0  0  0
 38 37  2  0  0  0  0
 39 28  1  0  0  0  0
 39 78  1  0  0  0  0
 40 39  2  0  0  0  0
 41 25  2  0  0  0  0
 41 40  1  0  0  0  0
 42 41  1  0  0  0  0
 43 42  2  0  0  0  0
 43 44  1  0  0  0  0
 44 45  2  0  0  0  0
 45 40  1  0  0  0  0
 45 82  1  0  0  0  0
 49 12  1  0  0  0  0
 50 12  1  0  0  0  0
 51 12  1  0  0  0  0
 53 13  1  0  0  0  0
 54 13  1  0  0  0  0
 55 14  1  0  0  0  0
 57 14  1  0  0  0  0
 58 15  1  0  0  0  0
 59 16  1  0  0  0  0
 60 17  1  0  0  0  0
 64 23  1  0  0  0  0
 65 30  1  0  0  0  0
 66 31  1  0  0  0  0
 72 35  1  0  0  0  0
 74 36  1  0  0  0  0
 79 42  1  0  0  0  0
 80 43  1  0  0  0  0
 81 44  1  0  0  0  0
M  END
$$$$
