Standard file
 OpenBabel12142210053D

 58 64  0  0  0  0  0  0  0  0999 V2000
    2.3336   -0.9217   -1.8581 O   0  0  0  0  0  0  0  0  0  0  0  0
    0.9296   -0.6371   -1.6067 P   0  0  0  0  0  0  0  0  0  0  0  0
   -0.0507   -0.9077   -2.8306 O   0  0  0  0  0  0  0  0  0  0  0  0
    0.1872   -1.4993   -0.4679 O   0  0  0  0  0  0  0  0  0  0  0  0
    0.5530   -1.1360    0.8222 C   0  0  0  0  0  0  0  0  0  0  0  0
    1.5049   -1.9188    1.5108 C   0  0  0  0  0  0  0  0  0  0  0  0
    2.1079   -3.0898    0.8568 C   0  0  0  0  0  0  0  0  0  0  0  0
    1.3188   -4.0514    0.2334 C   0  0  0  0  0  0  0  0  0  0  0  0
    1.9058   -5.1391   -0.3862 C   0  0  0  0  0  0  0  0  0  0  0  0
    3.2834   -5.2777   -0.3943 C   0  0  0  0  0  0  0  0  0  0  0  0
    4.0742   -4.3257    0.2266 C   0  0  0  0  0  0  0  0  0  0  0  0
    3.4914   -3.2398    0.8520 C   0  0  0  0  0  0  0  0  0  0  0  0
    1.8679   -1.5345    2.7788 C   0  0  0  0  0  0  0  0  0  0  0  0
    1.3456   -0.3721    3.3774 C   0  0  0  0  0  0  0  0  0  0  0  0
    0.4133    0.4257    2.6627 C   0  0  0  0  0  0  0  0  0  0  0  0
   -0.0273    1.6345    3.2419 C   0  0  0  0  0  0  0  0  0  0  0  0
    0.3946    2.0079    4.4876 C   0  0  0  0  0  0  0  0  0  0  0  0
    1.2796    1.1968    5.2136 C   0  0  0  0  0  0  0  0  0  0  0  0
    1.7504    0.0371    4.6662 C   0  0  0  0  0  0  0  0  0  0  0  0
    0.0000    0.0000    1.3704 C   0  0  0  0  0  0  0  0  0  0  0  0
   -0.9762    0.7616    0.5636 C   0  0  0  0  0  0  0  0  0  0  0  0
   -0.6066    1.1813   -0.6947 C   0  0  0  0  0  0  0  0  0  0  0  0
    0.6640    0.8724   -1.1659 O   0  0  0  0  0  0  0  0  0  0  0  0
   -1.4831    1.9016   -1.5359 C   0  0  0  0  0  0  0  0  0  0  0  0
   -1.0623    2.2900   -2.8911 C   0  0  0  0  0  0  0  0  0  0  0  0
    0.1589    2.9185   -3.1159 C   0  0  0  0  0  0  0  0  0  0  0  0
    0.5351    3.2708   -4.3991 C   0  0  0  0  0  0  0  0  0  0  0  0
   -0.2982    2.9984   -5.4710 C   0  0  0  0  0  0  0  0  0  0  0  0
   -1.5153    2.3739   -5.2547 C   0  0  0  0  0  0  0  0  0  0  0  0
   -1.8973    2.0240   -3.9731 C   0  0  0  0  0  0  0  0  0  0  0  0
   -2.7397    2.1977   -1.0669 C   0  0  0  0  0  0  0  0  0  0  0  0
   -3.1762    1.7677    0.2004 C   0  0  0  0  0  0  0  0  0  0  0  0
   -2.2964    1.0193    1.0261 C   0  0  0  0  0  0  0  0  0  0  0  0
   -2.7830    0.5170    2.2515 C   0  0  0  0  0  0  0  0  0  0  0  0
   -4.0603    0.7843    2.6595 C   0  0  0  0  0  0  0  0  0  0  0  0
   -4.9147    1.5633    1.8650 C   0  0  0  0  0  0  0  0  0  0  0  0
   -4.4833    2.0381    0.6590 C   0  0  0  0  0  0  0  0  0  0  0  0
    0.4256   -1.3605   -3.5245 H   0  0  0  0  0  0  0  0  0  0  0  0
    0.2441   -3.9487    0.2451 H   0  0  0  0  0  0  0  0  0  0  0  0
    1.2854   -5.8819   -0.8668 H   0  0  0  0  0  0  0  0  0  0  0  0
    3.7398   -6.1246   -0.8856 H   0  0  0  0  0  0  0  0  0  0  0  0
    5.1495   -4.4273    0.2183 H   0  0  0  0  0  0  0  0  0  0  0  0
    4.1079   -2.4859    1.3187 H   0  0  0  0  0  0  0  0  0  0  0  0
    2.5820   -2.1293    3.3297 H   0  0  0  0  0  0  0  0  0  0  0  0
   -0.6993    2.2691    2.6847 H   0  0  0  0  0  0  0  0  0  0  0  0
    0.0496    2.9357    4.9194 H   0  0  0  0  0  0  0  0  0  0  0  0
    1.5944    1.5034    6.2001 H   0  0  0  0  0  0  0  0  0  0  0  0
    2.4492   -0.5841    5.2075 H   0  0  0  0  0  0  0  0  0  0  0  0
    0.8075    3.1389   -2.2819 H   0  0  0  0  0  0  0  0  0  0  0  0
    1.4838    3.7600   -4.5634 H   0  0  0  0  0  0  0  0  0  0  0  0
    0.0000    3.2715   -6.4726 H   0  0  0  0  0  0  0  0  0  0  0  0
   -2.1679    2.1571   -6.0881 H   0  0  0  0  0  0  0  0  0  0  0  0
   -2.8391    1.5221   -3.8053 H   0  0  0  0  0  0  0  0  0  0  0  0
   -3.4180    2.7653   -1.6874 H   0  0  0  0  0  0  0  0  0  0  0  0
   -2.1354   -0.0917    2.8636 H   0  0  0  0  0  0  0  0  0  0  0  0
   -4.4205    0.3917    3.5988 H   0  0  0  0  0  0  0  0  0  0  0  0
   -5.9171    1.7720    2.2083 H   0  0  0  0  0  0  0  0  0  0  0  0
   -5.1395    2.6216    0.0294 H   0  0  0  0  0  0  0  0  0  0  0  0
  1  2  2  0  0  0  0
  2 23  1  0  0  0  0
  2  4  1  0  0  0  0
  3  2  1  0  0  0  0
  4  5  1  0  0  0  0
  5 20  2  0  0  0  0
  5  6  1  0  0  0  0
  6 13  2  0  0  0  0
  7  6  1  0  0  0  0
  8 39  1  0  0  0  0
  8  7  2  0  0  0  0
  9  8  1  0  0  0  0
 10  9  2  0  0  0  0
 10 11  1  0  0  0  0
 11 12  2  0  0  0  0
 12  7  1  0  0  0  0
 12 43  1  0  0  0  0
 13 44  1  0  0  0  0
 13 14  1  0  0  0  0
 14 19  1  0  0  0  0
 15 16  1  0  0  0  0
 15 14  2  0  0  0  0
 16 17  2  0  0  0  0
 17 46  1  0  0  0  0
 17 18  1  0  0  0  0
 18 47  1  0  0  0  0
 19 48  1  0  0  0  0
 19 18  2  0  0  0  0
 20 15  1  0  0  0  0
 21 33  1  0  0  0  0
 21 20  1  0  0  0  0
 22 21  2  0  0  0  0
 23 22  1  0  0  0  0
 24 31  2  0  0  0  0
 24 22  1  0  0  0  0
 25 24  1  0  0  0  0
 26 25  1  0  0  0  0
 26 49  1  0  0  0  0
 27 26  2  0  0  0  0
 28 29  2  0  0  0  0
 28 27  1  0  0  0  0
 29 30  1  0  0  0  0
 30 53  1  0  0  0  0
 30 25  2  0  0  0  0
 31 32  1  0  0  0  0
 32 37  2  0  0  0  0
 32 33  1  0  0  0  0
 33 34  2  0  0  0  0
 34 35  1  0  0  0  0
 34 55  1  0  0  0  0
 35 56  1  0  0  0  0
 36 57  1  0  0  0  0
 36 35  2  0  0  0  0
 37 36  1  0  0  0  0
 38  3  1  0  0  0  0
 40  9  1  0  0  0  0
 41 10  1  0  0  0  0
 42 11  1  0  0  0  0
 45 16  1  0  0  0  0
 50 27  1  0  0  0  0
 51 28  1  0  0  0  0
 52 29  1  0  0  0  0
 54 31  1  0  0  0  0
 58 37  1  0  0  0  0
M  END
$$$$
