Standard file
 OpenBabel12142210053D

 78 84  0  0  0  0  0  0  0  0999 V2000
   -1.1287    1.4805   -0.5677 O   0  0  0  0  0  0  0  0  0  0  0  0
   -0.5185    0.1857   -0.3148 P   0  0  0  0  0  0  0  0  0  0  0  0
   -1.4180   -1.0944   -0.5792 O   0  0  0  0  0  0  0  0  0  0  0  0
    0.7844   -0.1636   -1.2096 O   0  0  0  0  0  0  0  0  0  0  0  0
    1.8669    0.6206   -0.8263 C   0  0  0  0  0  0  0  0  0  0  0  0
    2.1327    1.8305   -1.4637 C   0  0  0  0  0  0  0  0  0  0  0  0
    1.2477    2.3027   -2.5336 C   0  0  0  0  0  0  0  0  0  0  0  0
    0.7604    1.4307   -3.5013 C   0  0  0  0  0  0  0  0  0  0  0  0
   -0.1673    1.8719   -4.4333 C   0  0  0  0  0  0  0  0  0  0  0  0
   -0.7252    0.8643   -5.3993 C   0  0  0  0  0  0  0  0  0  0  0  0
   -1.5133   -0.0339   -4.7737 F   0  0  0  0  0  0  0  0  0  0  0  0
    0.2387    0.1482   -6.0032 F   0  0  0  0  0  0  0  0  0  0  0  0
   -1.4651    1.4055   -6.3715 F   0  0  0  0  0  0  0  0  0  0  0  0
   -0.6049    3.1859   -4.4451 C   0  0  0  0  0  0  0  0  0  0  0  0
   -0.0864    4.0595   -3.4977 C   0  0  0  0  0  0  0  0  0  0  0  0
   -0.5318    5.4968   -3.5376 C   0  0  0  0  0  0  0  0  0  0  0  0
   -1.8603    5.6209   -3.6579 F   0  0  0  0  0  0  0  0  0  0  0  0
   -0.1720    6.1934   -2.4537 F   0  0  0  0  0  0  0  0  0  0  0  0
    0.0000    6.1465   -4.5936 F   0  0  0  0  0  0  0  0  0  0  0  0
    0.8213    3.6293   -2.5457 C   0  0  0  0  0  0  0  0  0  0  0  0
    3.1830    2.5968   -0.9722 C   0  0  0  0  0  0  0  0  0  0  0  0
    3.9027    2.2255    0.1559 C   0  0  0  0  0  0  0  0  0  0  0  0
    3.5866    1.0409    0.8213 C   0  0  0  0  0  0  0  0  0  0  0  0
    4.2419    0.6791    2.1262 C   0  0  0  0  0  0  0  0  0  0  0  0
    4.8813    1.8922    2.7924 C   0  0  0  0  0  0  0  0  0  0  0  0
    5.7988    2.5786    1.7896 C   0  0  0  0  0  0  0  0  0  0  0  0
    4.9573    3.1712    0.6656 C   0  0  0  0  0  0  0  0  0  0  0  0
    2.5864    0.2174    0.2922 C   0  0  0  0  0  0  0  0  0  0  0  0
    2.1482   -1.0397    0.9453 C   0  0  0  0  0  0  0  0  0  0  0  0
    0.8395   -1.0836    1.4214 C   0  0  0  0  0  0  0  0  0  0  0  0
    0.0000    0.0000    1.1846 O   0  0  0  0  0  0  0  0  0  0  0  0
    0.3453   -2.2168    2.0624 C   0  0  0  0  0  0  0  0  0  0  0  0
   -1.0544   -2.2844    2.5005 C   0  0  0  0  0  0  0  0  0  0  0  0
   -1.6537   -1.2174    3.1669 C   0  0  0  0  0  0  0  0  0  0  0  0
   -2.9804   -1.3014    3.5550 C   0  0  0  0  0  0  0  0  0  0  0  0
   -3.6455   -0.1519    4.2645 C   0  0  0  0  0  0  0  0  0  0  0  0
   -4.5416    0.4697    3.4804 F   0  0  0  0  0  0  0  0  0  0  0  0
   -2.7830    0.7816    4.6803 F   0  0  0  0  0  0  0  0  0  0  0  0
   -4.3215   -0.5584    5.3535 F   0  0  0  0  0  0  0  0  0  0  0  0
   -3.7398   -2.4340    3.2904 C   0  0  0  0  0  0  0  0  0  0  0  0
   -3.1347   -3.4926    2.6319 C   0  0  0  0  0  0  0  0  0  0  0  0
   -3.9127   -4.7382    2.3033 C   0  0  0  0  0  0  0  0  0  0  0  0
   -5.0947   -4.8048    2.9231 F   0  0  0  0  0  0  0  0  0  0  0  0
   -4.1635   -4.8384    0.9852 F   0  0  0  0  0  0  0  0  0  0  0  0
   -3.2387   -5.8529    2.6374 F   0  0  0  0  0  0  0  0  0  0  0  0
   -1.8069   -3.4244    2.2364 C   0  0  0  0  0  0  0  0  0  0  0  0
    1.2061   -3.2962    2.2314 C   0  0  0  0  0  0  0  0  0  0  0  0
    2.4931   -3.2961    1.7158 C   0  0  0  0  0  0  0  0  0  0  0  0
    2.9616   -2.1732    1.0316 C   0  0  0  0  0  0  0  0  0  0  0  0
    4.2589   -2.2276    0.2748 C   0  0  0  0  0  0  0  0  0  0  0  0
    5.2235   -3.2557    0.8536 C   0  0  0  0  0  0  0  0  0  0  0  0
    4.5178   -4.6016    0.9495 C   0  0  0  0  0  0  0  0  0  0  0  0
    3.3617   -4.5046    1.9386 C   0  0  0  0  0  0  0  0  0  0  0  0
   -2.0736   -0.9158   -1.2531 H   0  0  0  0  0  0  0  0  0  0  0  0
    1.0977    0.4064   -3.5297 H   0  0  0  0  0  0  0  0  0  0  0  0
   -1.3331    3.5237   -5.1662 H   0  0  0  0  0  0  0  0  0  0  0  0
    1.1745    4.3145   -1.7911 H   0  0  0  0  0  0  0  0  0  0  0  0
    3.4277    3.5255   -1.4662 H   0  0  0  0  0  0  0  0  0  0  0  0
    5.0195   -0.0711    1.9571 H   0  0  0  0  0  0  0  0  0  0  0  0
    3.4976    0.2255    2.7846 H   0  0  0  0  0  0  0  0  0  0  0  0
    4.1074    2.5901    3.1166 H   0  0  0  0  0  0  0  0  0  0  0  0
    5.4412    1.5737    3.6729 H   0  0  0  0  0  0  0  0  0  0  0  0
    6.5028    1.8486    1.3845 H   0  0  0  0  0  0  0  0  0  0  0  0
    6.3757    3.3691    2.2714 H   0  0  0  0  0  0  0  0  0  0  0  0
    4.4523    4.0704    1.0318 H   0  0  0  0  0  0  0  0  0  0  0  0
    5.5960    3.4786   -0.1655 H   0  0  0  0  0  0  0  0  0  0  0  0
   -1.0827   -0.3293    3.3871 H   0  0  0  0  0  0  0  0  0  0  0  0
   -4.7729   -2.4881    3.5971 H   0  0  0  0  0  0  0  0  0  0  0  0
   -1.3629   -4.2542    1.7077 H   0  0  0  0  0  0  0  0  0  0  0  0
    0.8502   -4.1668    2.7623 H   0  0  0  0  0  0  0  0  0  0  0  0
    4.7219   -1.2442    0.2180 H   0  0  0  0  0  0  0  0  0  0  0  0
    4.0138   -2.5150   -0.7541 H   0  0  0  0  0  0  0  0  0  0  0  0
    5.5503   -2.9418    1.8473 H   0  0  0  0  0  0  0  0  0  0  0  0
    6.1052   -3.3321    0.2155 H   0  0  0  0  0  0  0  0  0  0  0  0
    5.2127   -5.3775    1.2742 H   0  0  0  0  0  0  0  0  0  0  0  0
    4.1387   -4.8810   -0.0353 H   0  0  0  0  0  0  0  0  0  0  0  0
    2.7501   -5.4077    1.8935 H   0  0  0  0  0  0  0  0  0  0  0  0
    3.7648   -4.4397    2.9549 H   0  0  0  0  0  0  0  0  0  0  0  0
  1  2  2  0  0  0  0
  2 31  1  0  0  0  0
  3  2  1  0  0  0  0
  4  5  1  0  0  0  0
  4  2  1  0  0  0  0
  5 28  1  0  0  0  0
  6 21  1  0  0  0  0
  6  5  2  0  0  0  0
  7  6  1  0  0  0  0
  8  7  2  0  0  0  0
  9  8  1  0  0  0  0
 10 11  1  0  0  0  0
 10  9  1  0  0  0  0
 12 10  1  0  0  0  0
 13 10  1  0  0  0  0
 14  9  2  0  0  0  0
 14 15  1  0  0  0  0
 15 20  2  0  0  0  0
 16 15  1  0  0  0  0
 16 18  1  0  0  0  0
 17 16  1  0  0  0  0
 19 16  1  0  0  0  0
 20  7  1  0  0  0  0
 20 57  1  0  0  0  0
 21 22  2  0  0  0  0
 22 27  1  0  0  0  0
 22 23  1  0  0  0  0
 23 24  1  0  0  0  0
 24 60  1  0  0  0  0
 24 25  1  0  0  0  0
 25 61  1  0  0  0  0
 25 62  1  0  0  0  0
 26 64  1  0  0  0  0
 26 25  1  0  0  0  0
 27 65  1  0  0  0  0
 27 26  1  0  0  0  0
 28 23  2  0  0  0  0
 28 29  1  0  0  0  0
 29 49  2  0  0  0  0
 29 30  1  0  0  0  0
 30 32  2  0  0  0  0
 31 30  1  0  0  0  0
 32 47  1  0  0  0  0
 32 33  1  0  0  0  0
 33 34  1  0  0  0  0
 34 67  1  0  0  0  0
 34 35  2  0  0  0  0
 35 36  1  0  0  0  0
 36 38  1  0  0  0  0
 36 39  1  0  0  0  0
 37 36  1  0  0  0  0
 40 35  1  0  0  0  0
 40 68  1  0  0  0  0
 41 40  2  0  0  0  0
 42 41  1  0  0  0  0
 42 45  1  0  0  0  0
 42 43  1  0  0  0  0
 44 42  1  0  0  0  0
 46 33  2  0  0  0  0
 46 41  1  0  0  0  0
 47 70  1  0  0  0  0
 48 53  1  0  0  0  0
 48 47  2  0  0  0  0
 49 48  1  0  0  0  0
 50 51  1  0  0  0  0
 50 49  1  0  0  0  0
 51 52  1  0  0  0  0
 51 73  1  0  0  0  0
 52 75  1  0  0  0  0
 52 53  1  0  0  0  0
 53 78  1  0  0  0  0
 54  3  1  0  0  0  0
 55  8  1  0  0  0  0
 56 14  1  0  0  0  0
 58 21  1  0  0  0  0
 59 24  1  0  0  0  0
 63 26  1  0  0  0  0
 66 27  1  0  0  0  0
 69 46  1  0  0  0  0
 71 50  1  0  0  0  0
 72 50  1  0  0  0  0
 74 51  1  0  0  0  0
 76 52  1  0  0  0  0
 77 53  1  0  0  0  0
M  END
$$$$
