Standard file
 OpenBabel12142210053D

 66 72  0  0  0  0  0  0  0  0999 V2000
   -1.0153   -0.5491    2.1731 O   0  0  0  0  0  0  0  0  0  0  0  0
    0.0000    0.0000    1.2989 P   0  0  0  0  0  0  0  0  0  0  0  0
    1.1952    0.7134    2.0421 O   0  0  0  0  0  0  0  0  0  0  0  0
    0.7893   -1.0385    0.3385 O   0  0  0  0  0  0  0  0  0  0  0  0
   -0.0798   -1.5941   -0.5964 C   0  0  0  0  0  0  0  0  0  0  0  0
   -0.6996   -2.8096   -0.3367 C   0  0  0  0  0  0  0  0  0  0  0  0
   -0.4087   -3.5090    0.9265 C   0  0  0  0  0  0  0  0  0  0  0  0
    0.8746   -3.9579    1.2302 C   0  0  0  0  0  0  0  0  0  0  0  0
    2.1256   -3.7740    0.0652 Cl  0  0  0  0  0  0  0  0  0  0  0  0
    1.1723   -4.5699    2.4360 C   0  0  0  0  0  0  0  0  0  0  0  0
    0.1585   -4.7299    3.3666 C   0  0  0  0  0  0  0  0  0  0  0  0
    0.5097   -5.4802    4.8732 Cl  0  0  0  0  0  0  0  0  0  0  0  0
   -1.1314   -4.2984    3.1052 C   0  0  0  0  0  0  0  0  0  0  0  0
   -1.4021   -3.6936    1.8888 C   0  0  0  0  0  0  0  0  0  0  0  0
   -2.9872   -3.1270    1.5817 Cl  0  0  0  0  0  0  0  0  0  0  0  0
   -1.6202   -3.2848   -1.2576 C   0  0  0  0  0  0  0  0  0  0  0  0
   -1.9697   -2.5490   -2.3830 C   0  0  0  0  0  0  0  0  0  0  0  0
   -1.3641   -1.3164   -2.6217 C   0  0  0  0  0  0  0  0  0  0  0  0
   -1.7952   -0.4442   -3.7686 C   0  0  0  0  0  0  0  0  0  0  0  0
   -3.1797   -0.8251   -4.2796 C   0  0  0  0  0  0  0  0  0  0  0  0
   -3.2023   -2.3184   -4.5770 C   0  0  0  0  0  0  0  0  0  0  0  0
   -3.0571   -3.0909   -3.2715 C   0  0  0  0  0  0  0  0  0  0  0  0
   -0.3827   -0.8593   -1.7356 C   0  0  0  0  0  0  0  0  0  0  0  0
    0.3034    0.4428   -1.8871 C   0  0  0  0  0  0  0  0  0  0  0  0
    0.1384    1.3801   -0.8662 C   0  0  0  0  0  0  0  0  0  0  0  0
   -0.6175    1.0602    0.2501 O   0  0  0  0  0  0  0  0  0  0  0  0
    0.7501    2.6278   -0.9274 C   0  0  0  0  0  0  0  0  0  0  0  0
    0.5639    3.5771    0.1885 C   0  0  0  0  0  0  0  0  0  0  0  0
    1.5997    3.8596    1.0741 C   0  0  0  0  0  0  0  0  0  0  0  0
    3.1182    3.0594    0.8605 Cl  0  0  0  0  0  0  0  0  0  0  0  0
    1.4468    4.7372    2.1323 C   0  0  0  0  0  0  0  0  0  0  0  0
    0.2135    5.3452    2.3148 C   0  0  0  0  0  0  0  0  0  0  0  0
    0.0000    6.4401    3.6218 Cl  0  0  0  0  0  0  0  0  0  0  0  0
   -0.8493    5.0804    1.4654 C   0  0  0  0  0  0  0  0  0  0  0  0
   -0.6642    4.1983    0.4132 C   0  0  0  0  0  0  0  0  0  0  0  0
   -1.9712    3.8655   -0.6472 Cl  0  0  0  0  0  0  0  0  0  0  0  0
    1.5406    2.9403   -2.0260 C   0  0  0  0  0  0  0  0  0  0  0  0
    1.7669    1.9992   -3.0133 C   0  0  0  0  0  0  0  0  0  0  0  0
    1.1631    0.7425   -2.9424 C   0  0  0  0  0  0  0  0  0  0  0  0
    1.5993   -0.2655   -3.9610 C   0  0  0  0  0  0  0  0  0  0  0  0
    1.5935    0.2870   -5.3980 C   0  0  0  0  0  0  0  0  0  0  0  0
    1.8677    1.7949   -5.4516 C   0  0  0  0  0  0  0  0  0  0  0  0
    2.6264    2.2672   -4.2090 C   0  0  0  0  0  0  0  0  0  0  0  0
    1.9371    0.9956    1.4983 H   0  0  0  0  0  0  0  0  0  0  0  0
    2.1736   -4.9105    2.6436 H   0  0  0  0  0  0  0  0  0  0  0  0
   -1.9130   -4.4188    3.8371 H   0  0  0  0  0  0  0  0  0  0  0  0
   -2.1041   -4.2318   -1.0709 H   0  0  0  0  0  0  0  0  0  0  0  0
   -1.0828   -0.5461   -4.5908 H   0  0  0  0  0  0  0  0  0  0  0  0
   -1.7762    0.6013   -3.4519 H   0  0  0  0  0  0  0  0  0  0  0  0
   -3.9319   -0.5924   -3.5237 H   0  0  0  0  0  0  0  0  0  0  0  0
   -3.4111   -0.2487   -5.1770 H   0  0  0  0  0  0  0  0  0  0  0  0
   -4.1342   -2.6006   -5.0696 H   0  0  0  0  0  0  0  0  0  0  0  0
   -2.3785   -2.5657   -5.2502 H   0  0  0  0  0  0  0  0  0  0  0  0
   -3.9983   -3.0380   -2.7153 H   0  0  0  0  0  0  0  0  0  0  0  0
   -2.8638   -4.1469   -3.4736 H   0  0  0  0  0  0  0  0  0  0  0  0
    2.2648    4.9355    2.8055 H   0  0  0  0  0  0  0  0  0  0  0  0
   -1.8075    5.5494    1.6192 H   0  0  0  0  0  0  0  0  0  0  0  0
    2.0015    3.9150   -2.0843 H   0  0  0  0  0  0  0  0  0  0  0  0
    2.6290   -0.5353   -3.7028 H   0  0  0  0  0  0  0  0  0  0  0  0
    1.0079   -1.1774   -3.8946 H   0  0  0  0  0  0  0  0  0  0  0  0
    0.6301    0.0858   -5.8688 H   0  0  0  0  0  0  0  0  0  0  0  0
    2.3494   -0.2508   -5.9728 H   0  0  0  0  0  0  0  0  0  0  0  0
    0.9226    2.3402   -5.4951 H   0  0  0  0  0  0  0  0  0  0  0  0
    2.4333    2.0403   -6.3512 H   0  0  0  0  0  0  0  0  0  0  0  0
    3.5672    1.7163   -4.1252 H   0  0  0  0  0  0  0  0  0  0  0  0
    2.8606    3.3294   -4.2834 H   0  0  0  0  0  0  0  0  0  0  0  0
  2  3  1  0  0  0  0
  2  1  2  0  0  0  0
  4  2  1  0  0  0  0
  5  6  1  0  0  0  0
  5  4  1  0  0  0  0
  6  7  1  0  0  0  0
  7  8  2  0  0  0  0
  7 14  1  0  0  0  0
  8 10  1  0  0  0  0
  9  8  1  0  0  0  0
 10 45  1  0  0  0  0
 10 11  2  0  0  0  0
 11 12  1  0  0  0  0
 13 11  1  0  0  0  0
 13 46  1  0  0  0  0
 14 13  2  0  0  0  0
 15 14  1  0  0  0  0
 16 47  1  0  0  0  0
 16  6  2  0  0  0  0
 17 16  1  0  0  0  0
 18 17  2  0  0  0  0
 18 23  1  0  0  0  0
 19 49  1  0  0  0  0
 19 18  1  0  0  0  0
 20 19  1  0  0  0  0
 20 50  1  0  0  0  0
 21 20  1  0  0  0  0
 21 22  1  0  0  0  0
 22 54  1  0  0  0  0
 22 17  1  0  0  0  0
 23  5  2  0  0  0  0
 24 23  1  0  0  0  0
 24 25  1  0  0  0  0
 25 26  1  0  0  0  0
 26  2  1  0  0  0  0
 27 25  2  0  0  0  0
 27 28  1  0  0  0  0
 28 35  2  0  0  0  0
 28 29  1  0  0  0  0
 29 31  2  0  0  0  0
 30 29  1  0  0  0  0
 31 32  1  0  0  0  0
 31 56  1  0  0  0  0
 32 33  1  0  0  0  0
 34 57  1  0  0  0  0
 34 32  2  0  0  0  0
 35 34  1  0  0  0  0
 36 35  1  0  0  0  0
 37 27  1  0  0  0  0
 38 39  1  0  0  0  0
 38 37  2  0  0  0  0
 39 24  2  0  0  0  0
 40 60  1  0  0  0  0
 40 59  1  0  0  0  0
 40 39  1  0  0  0  0
 41 40  1  0  0  0  0
 42 41  1  0  0  0  0
 42 43  1  0  0  0  0
 43 65  1  0  0  0  0
 43 38  1  0  0  0  0
 44  3  1  0  0  0  0
 48 19  1  0  0  0  0
 51 20  1  0  0  0  0
 52 21  1  0  0  0  0
 53 21  1  0  0  0  0
 55 22  1  0  0  0  0
 58 37  1  0  0  0  0
 61 41  1  0  0  0  0
 62 41  1  0  0  0  0
 63 42  1  0  0  0  0
 64 42  1  0  0  0  0
 66 43  1  0  0  0  0
M  END
$$$$
