Standard file
 OpenBabel12142210053D

104114  0  0  0  0  0  0  0  0999 V2000
   -0.8894    0.5785    2.2171 O   0  0  0  0  0  0  0  0  0  0  0  0
    0.0000    0.0000    1.2341 P   0  0  0  0  0  0  0  0  0  0  0  0
    1.2852   -0.7395    1.7852 O   0  0  0  0  0  0  0  0  0  0  0  0
    0.7359    0.9655    0.1599 O   0  0  0  0  0  0  0  0  0  0  0  0
   -0.1374    1.6247   -0.6970 C   0  0  0  0  0  0  0  0  0  0  0  0
   -0.3286    2.9997   -0.4870 C   0  0  0  0  0  0  0  0  0  0  0  0
    0.8369    3.7973    0.7793 Si  0  0  0  0  0  0  0  0  0  0  0  0
    0.7180    3.0162    2.4922 C   0  0  0  0  0  0  0  0  0  0  0  0
   -0.3938    3.2202    3.3032 C   0  0  0  0  0  0  0  0  0  0  0  0
   -0.4998    2.5980    4.5325 C   0  0  0  0  0  0  0  0  0  0  0  0
    0.5004    1.7462    4.9667 C   0  0  0  0  0  0  0  0  0  0  0  0
    1.6101    1.5276    4.1701 C   0  0  0  0  0  0  0  0  0  0  0  0
    1.7172    2.1620    2.9471 C   0  0  0  0  0  0  0  0  0  0  0  0
    2.6113    3.6079    0.1157 C   0  0  0  0  0  0  0  0  0  0  0  0
    3.6653    4.1755    0.8293 C   0  0  0  0  0  0  0  0  0  0  0  0
    4.9720    4.0606    0.3924 C   0  0  0  0  0  0  0  0  0  0  0  0
    5.2526    3.3732   -0.7771 C   0  0  0  0  0  0  0  0  0  0  0  0
    4.2183    2.8088   -1.5037 C   0  0  0  0  0  0  0  0  0  0  0  0
    2.9127    2.9290   -1.0601 C   0  0  0  0  0  0  0  0  0  0  0  0
    0.5178    5.6679    0.8146 C   0  0  0  0  0  0  0  0  0  0  0  0
    0.2694    6.3582    1.9955 C   0  0  0  0  0  0  0  0  0  0  0  0
    0.0827    7.7295    1.9977 C   0  0  0  0  0  0  0  0  0  0  0  0
    0.1476    8.4405    0.8119 C   0  0  0  0  0  0  0  0  0  0  0  0
    0.4124    7.7727   -0.3724 C   0  0  0  0  0  0  0  0  0  0  0  0
    0.5991    6.4029   -0.3658 C   0  0  0  0  0  0  0  0  0  0  0  0
   -1.2345    3.6473   -1.2844 C   0  0  0  0  0  0  0  0  0  0  0  0
   -1.9695    2.9589   -2.2732 C   0  0  0  0  0  0  0  0  0  0  0  0
   -1.7112    1.5823   -2.5112 C   0  0  0  0  0  0  0  0  0  0  0  0
   -2.4776    0.9071   -3.4832 C   0  0  0  0  0  0  0  0  0  0  0  0
   -3.4305    1.5692   -4.2069 C   0  0  0  0  0  0  0  0  0  0  0  0
   -3.6632    2.9361   -3.9966 C   0  0  0  0  0  0  0  0  0  0  0  0
   -2.9513    3.6131   -3.0467 C   0  0  0  0  0  0  0  0  0  0  0  0
   -0.7285    0.9226   -1.7196 C   0  0  0  0  0  0  0  0  0  0  0  0
   -0.3289   -0.4781   -1.9617 C   0  0  0  0  0  0  0  0  0  0  0  0
   -0.4008   -1.4004   -0.9433 C   0  0  0  0  0  0  0  0  0  0  0  0
   -0.8286   -1.0202    0.3138 O   0  0  0  0  0  0  0  0  0  0  0  0
   -0.1406   -2.7711   -1.1237 C   0  0  0  0  0  0  0  0  0  0  0  0
   -0.5726   -3.9323    0.3194 Si  0  0  0  0  0  0  0  0  0  0  0  0
    0.2464   -5.5963   -0.0874 C   0  0  0  0  0  0  0  0  0  0  0  0
   -0.4666   -6.7870   -0.0034 C   0  0  0  0  0  0  0  0  0  0  0  0
    0.1357   -8.0039   -0.2689 C   0  0  0  0  0  0  0  0  0  0  0  0
    1.4730   -8.0528   -0.6239 C   0  0  0  0  0  0  0  0  0  0  0  0
    2.1999   -6.8777   -0.7155 C   0  0  0  0  0  0  0  0  0  0  0  0
    1.5894   -5.6655   -0.4501 C   0  0  0  0  0  0  0  0  0  0  0  0
   -0.0054   -3.3671    2.0355 C   0  0  0  0  0  0  0  0  0  0  0  0
    1.2362   -3.7275    2.5509 C   0  0  0  0  0  0  0  0  0  0  0  0
    1.6562   -3.2643    3.7846 C   0  0  0  0  0  0  0  0  0  0  0  0
    0.8396   -2.4271    4.5250 C   0  0  0  0  0  0  0  0  0  0  0  0
   -0.4065   -2.0748    4.0361 C   0  0  0  0  0  0  0  0  0  0  0  0
   -0.8259   -2.5473    2.8072 C   0  0  0  0  0  0  0  0  0  0  0  0
   -2.4602   -4.0950    0.3341 C   0  0  0  0  0  0  0  0  0  0  0  0
   -3.0963   -4.7236    1.4022 C   0  0  0  0  0  0  0  0  0  0  0  0
   -4.4733   -4.8410    1.4453 C   0  0  0  0  0  0  0  0  0  0  0  0
   -5.2444   -4.3244    0.4172 C   0  0  0  0  0  0  0  0  0  0  0  0
   -4.6293   -3.6934   -0.6505 C   0  0  0  0  0  0  0  0  0  0  0  0
   -3.2508   -3.5834   -0.6898 C   0  0  0  0  0  0  0  0  0  0  0  0
    0.2622   -3.1901   -2.3648 C   0  0  0  0  0  0  0  0  0  0  0  0
    0.4623   -2.2789   -3.4228 C   0  0  0  0  0  0  0  0  0  0  0  0
    0.1700   -0.9027   -3.2271 C   0  0  0  0  0  0  0  0  0  0  0  0
    0.4246   -0.0020   -4.2824 C   0  0  0  0  0  0  0  0  0  0  0  0
    0.9045   -0.4474   -5.4832 C   0  0  0  0  0  0  0  0  0  0  0  0
    1.1533   -1.8120   -5.6902 C   0  0  0  0  0  0  0  0  0  0  0  0
    0.9427   -2.7061   -4.6786 C   0  0  0  0  0  0  0  0  0  0  0  0
    2.0271   -0.7315    1.1801 H   0  0  0  0  0  0  0  0  0  0  0  0
   -1.1963    3.8557    2.9562 H   0  0  0  0  0  0  0  0  0  0  0  0
   -1.3740    2.7631    5.1459 H   0  0  0  0  0  0  0  0  0  0  0  0
    0.4107    1.2459    5.9203 H   0  0  0  0  0  0  0  0  0  0  0  0
    2.3888    0.8533    4.4978 H   0  0  0  0  0  0  0  0  0  0  0  0
    2.5903    1.9924    2.3313 H   0  0  0  0  0  0  0  0  0  0  0  0
    3.4508    4.7143    1.7414 H   0  0  0  0  0  0  0  0  0  0  0  0
    5.7742    4.5068    0.9626 H   0  0  0  0  0  0  0  0  0  0  0  0
    6.2726    3.2803   -1.1216 H   0  0  0  0  0  0  0  0  0  0  0  0
    4.4292    2.2750   -2.4199 H   0  0  0  0  0  0  0  0  0  0  0  0
    2.1146    2.4857   -1.6385 H   0  0  0  0  0  0  0  0  0  0  0  0
    0.2281    5.8137    2.9272 H   0  0  0  0  0  0  0  0  0  0  0  0
   -0.1115    8.2461    2.9270 H   0  0  0  0  0  0  0  0  0  0  0  0
    0.0000    9.5109    0.8106 H   0  0  0  0  0  0  0  0  0  0  0  0
    0.4765    8.3233   -1.3004 H   0  0  0  0  0  0  0  0  0  0  0  0
    0.8211    5.8899   -1.2912 H   0  0  0  0  0  0  0  0  0  0  0  0
   -1.4076    4.7051   -1.1512 H   0  0  0  0  0  0  0  0  0  0  0  0
   -2.3128   -0.1481   -3.6410 H   0  0  0  0  0  0  0  0  0  0  0  0
   -4.0146    1.0385   -4.9442 H   0  0  0  0  0  0  0  0  0  0  0  0
   -4.4147    3.4442   -4.5826 H   0  0  0  0  0  0  0  0  0  0  0  0
   -3.1336    4.6623   -2.8639 H   0  0  0  0  0  0  0  0  0  0  0  0
   -1.5113   -6.7558    0.2693 H   0  0  0  0  0  0  0  0  0  0  0  0
   -0.4378   -8.9171   -0.1992 H   0  0  0  0  0  0  0  0  0  0  0  0
    1.9467   -9.0016   -0.8304 H   0  0  0  0  0  0  0  0  0  0  0  0
    3.2438   -6.9084   -0.9946 H   0  0  0  0  0  0  0  0  0  0  0  0
    2.1631   -4.7521   -0.5324 H   0  0  0  0  0  0  0  0  0  0  0  0
    1.8813   -4.3798    1.9784 H   0  0  0  0  0  0  0  0  0  0  0  0
    2.6264   -3.5518    4.1657 H   0  0  0  0  0  0  0  0  0  0  0  0
    1.1734   -2.0524    5.4818 H   0  0  0  0  0  0  0  0  0  0  0  0
   -1.0494   -1.4199    4.6035 H   0  0  0  0  0  0  0  0  0  0  0  0
   -1.8011   -2.2688    2.4382 H   0  0  0  0  0  0  0  0  0  0  0  0
   -2.4997   -5.1187    2.2127 H   0  0  0  0  0  0  0  0  0  0  0  0
   -4.9480   -5.3319    2.2830 H   0  0  0  0  0  0  0  0  0  0  0  0
   -6.3210   -4.4106    0.4503 H   0  0  0  0  0  0  0  0  0  0  0  0
   -5.2263   -3.2847   -1.4534 H   0  0  0  0  0  0  0  0  0  0  0  0
   -2.7791   -3.0882   -1.5269 H   0  0  0  0  0  0  0  0  0  0  0  0
    0.4433   -4.2402   -2.5426 H   0  0  0  0  0  0  0  0  0  0  0  0
    0.2458    1.0513   -4.1285 H   0  0  0  0  0  0  0  0  0  0  0  0
    1.0980    0.2545   -6.2808 H   0  0  0  0  0  0  0  0  0  0  0  0
    1.5216   -2.1467   -6.6486 H   0  0  0  0  0  0  0  0  0  0  0  0
    1.1478   -3.7577   -4.8185 H   0  0  0  0  0  0  0  0  0  0  0  0
  2  3  1  0  0  0  0
  2  1  2  0  0  0  0
  4  2  1  0  0  0  0
  5  6  1  0  0  0  0
  5  4  1  0  0  0  0
  6  7  1  0  0  0  0
  7 20  1  0  0  0  0
  7  8  1  0  0  0  0
  8 13  2  0  0  0  0
  8  9  1  0  0  0  0
  9 10  2  0  0  0  0
 10 11  1  0  0  0  0
 10 66  1  0  0  0  0
 11 67  1  0  0  0  0
 12 68  1  0  0  0  0
 12 11  2  0  0  0  0
 13 12  1  0  0  0  0
 14  7  1  0  0  0  0
 14 15  1  0  0  0  0
 15 70  1  0  0  0  0
 16 15  2  0  0  0  0
 16 71  1  0  0  0  0
 17 16  1  0  0  0  0
 18 19  1  0  0  0  0
 18 17  2  0  0  0  0
 19 14  2  0  0  0  0
 20 21  1  0  0  0  0
 21 22  2  0  0  0  0
 21 75  1  0  0  0  0
 22 76  1  0  0  0  0
 23 22  1  0  0  0  0
 24 25  1  0  0  0  0
 24 23  2  0  0  0  0
 25 20  2  0  0  0  0
 26 80  1  0  0  0  0
 26  6  2  0  0  0  0
 27 26  1  0  0  0  0
 28 27  1  0  0  0  0
 28 33  1  0  0  0  0
 29 28  2  0  0  0  0
 30 31  2  0  0  0  0
 30 29  1  0  0  0  0
 31 32  1  0  0  0  0
 32 84  1  0  0  0  0
 32 27  2  0  0  0  0
 33  5  2  0  0  0  0
 34 33  1  0  0  0  0
 34 35  1  0  0  0  0
 35 36  1  0  0  0  0
 36  2  1  0  0  0  0
 37 35  2  0  0  0  0
 37 38  1  0  0  0  0
 38 51  1  0  0  0  0
 38 45  1  0  0  0  0
 39 40  1  0  0  0  0
 39 38  1  0  0  0  0
 40 85  1  0  0  0  0
 41 86  1  0  0  0  0
 41 40  2  0  0  0  0
 42 41  1  0  0  0  0
 43 42  2  0  0  0  0
 43 44  1  0  0  0  0
 44 39  2  0  0  0  0
 45 46  2  0  0  0  0
 45 50  1  0  0  0  0
 46 47  1  0  0  0  0
 47 91  1  0  0  0  0
 47 48  2  0  0  0  0
 48 92  1  0  0  0  0
 49 48  1  0  0  0  0
 49 93  1  0  0  0  0
 50 49  2  0  0  0  0
 51 52  1  0  0  0  0
 52 53  2  0  0  0  0
 52 95  1  0  0  0  0
 53 96  1  0  0  0  0
 54 97  1  0  0  0  0
 54 53  1  0  0  0  0
 55 54  2  0  0  0  0
 56 55  1  0  0  0  0
 56 51  2  0  0  0  0
 57 37  1  0  0  0  0
 58 59  1  0  0  0  0
 58 57  2  0  0  0  0
 59 34  2  0  0  0  0
 60101  1  0  0  0  0
 60 59  1  0  0  0  0
 61 60  2  0  0  0  0
 62 61  1  0  0  0  0
 62 63  2  0  0  0  0
 63 58  1  0  0  0  0
 64  3  1  0  0  0  0
 65  9  1  0  0  0  0
 69 13  1  0  0  0  0
 72 17  1  0  0  0  0
 73 18  1  0  0  0  0
 74 19  1  0  0  0  0
 77 23  1  0  0  0  0
 78 24  1  0  0  0  0
 79 25  1  0  0  0  0
 81 29  1  0  0  0  0
 82 30  1  0  0  0  0
 83 31  1  0  0  0  0
 87 42  1  0  0  0  0
 88 43  1  0  0  0  0
 89 44  1  0  0  0  0
 90 46  1  0  0  0  0
 94 50  1  0  0  0  0
 98 55  1  0  0  0  0
 99 56  1  0  0  0  0
100 57  1  0  0  0  0
102 61  1  0  0  0  0
103 62  1  0  0  0  0
104 63  1  0  0  0  0
M  END
$$$$
