Standard file
 OpenBabel12142210053D

114128  0  0  0  0  0  0  0  0999 V2000
    0.0000    0.0000    1.2476 O   0  0  0  0  0  0  0  0  0  0  0  0
    0.1630   -0.0808   -0.1953 P   0  0  0  0  0  0  0  0  0  0  0  0
   -1.0940    0.3875   -1.0498 O   0  0  0  0  0  0  0  0  0  0  0  0
    1.3014    0.8343   -0.8710 O   0  0  0  0  0  0  0  0  0  0  0  0
    2.5938    0.3690   -0.6721 C   0  0  0  0  0  0  0  0  0  0  0  0
    3.3947    1.0037    0.3001 C   0  0  0  0  0  0  0  0  0  0  0  0
    2.8261    2.1198    1.0827 C   0  0  0  0  0  0  0  0  0  0  0  0
    2.5991    3.3555    0.4639 C   0  0  0  0  0  0  0  0  0  0  0  0
    2.9210    3.5803   -0.9000 C   0  0  0  0  0  0  0  0  0  0  0  0
    2.7031    4.7890   -1.4857 C   0  0  0  0  0  0  0  0  0  0  0  0
    2.1681    5.8559   -0.7365 C   0  0  0  0  0  0  0  0  0  0  0  0
    1.8619    5.6863    0.5785 C   0  0  0  0  0  0  0  0  0  0  0  0
    2.0545    4.4363    1.2238 C   0  0  0  0  0  0  0  0  0  0  0  0
    1.7517    4.2499    2.5798 C   0  0  0  0  0  0  0  0  0  0  0  0
    1.2063    5.3765    3.3670 C   0  0  0  0  0  0  0  0  0  0  0  0
    1.9677    6.0025    4.3221 C   0  0  0  0  0  0  0  0  0  0  0  0
    1.4588    7.0836    5.0687 C   0  0  0  0  0  0  0  0  0  0  0  0
    2.2276    7.7432    6.0506 C   0  0  0  0  0  0  0  0  0  0  0  0
    1.7072    8.7904    6.7577 C   0  0  0  0  0  0  0  0  0  0  0  0
    0.3947    9.2266    6.5170 C   0  0  0  0  0  0  0  0  0  0  0  0
   -0.3758    8.6074    5.5731 C   0  0  0  0  0  0  0  0  0  0  0  0
    0.1314    7.5245    4.8262 C   0  0  0  0  0  0  0  0  0  0  0  0
   -0.6347    6.8615    3.8440 C   0  0  0  0  0  0  0  0  0  0  0  0
   -0.1128    5.8199    3.1327 C   0  0  0  0  0  0  0  0  0  0  0  0
    1.9617    3.0059    3.1910 C   0  0  0  0  0  0  0  0  0  0  0  0
    2.5041    1.9232    2.4317 C   0  0  0  0  0  0  0  0  0  0  0  0
    2.6729    0.6661    3.0675 C   0  0  0  0  0  0  0  0  0  0  0  0
    2.3367    0.4881    4.3734 C   0  0  0  0  0  0  0  0  0  0  0  0
    1.8070    1.5560    5.1243 C   0  0  0  0  0  0  0  0  0  0  0  0
    1.6216    2.7751    4.5497 C   0  0  0  0  0  0  0  0  0  0  0  0
    4.6742    0.5505    0.4960 C   0  0  0  0  0  0  0  0  0  0  0  0
    5.1763   -0.5584   -0.2139 C   0  0  0  0  0  0  0  0  0  0  0  0
    4.3544   -1.2074   -1.1732 C   0  0  0  0  0  0  0  0  0  0  0  0
    4.8434   -2.3700   -1.8053 C   0  0  0  0  0  0  0  0  0  0  0  0
    6.1002   -2.8372   -1.5366 C   0  0  0  0  0  0  0  0  0  0  0  0
    6.9292   -2.1692   -0.6234 C   0  0  0  0  0  0  0  0  0  0  0  0
    6.4731   -1.0586    0.0286 C   0  0  0  0  0  0  0  0  0  0  0  0
    3.0515   -0.6914   -1.4209 C   0  0  0  0  0  0  0  0  0  0  0  0
    2.1475   -1.2842   -2.4261 C   0  0  0  0  0  0  0  0  0  0  0  0
    0.8990   -1.7040   -2.0269 C   0  0  0  0  0  0  0  0  0  0  0  0
    0.5079   -1.5539   -0.7029 O   0  0  0  0  0  0  0  0  0  0  0  0
   -0.0093   -2.3111   -2.9204 C   0  0  0  0  0  0  0  0  0  0  0  0
   -1.3282   -2.7509   -2.4203 C   0  0  0  0  0  0  0  0  0  0  0  0
   -1.4103   -3.8658   -1.5761 C   0  0  0  0  0  0  0  0  0  0  0  0
   -0.2568   -4.6014   -1.1981 C   0  0  0  0  0  0  0  0  0  0  0  0
   -0.3501   -5.6923   -0.3908 C   0  0  0  0  0  0  0  0  0  0  0  0
   -1.6080   -6.1303    0.0686 C   0  0  0  0  0  0  0  0  0  0  0  0
   -2.7395   -5.4611   -0.2825 C   0  0  0  0  0  0  0  0  0  0  0  0
   -2.6857   -4.3017   -1.1002 C   0  0  0  0  0  0  0  0  0  0  0  0
   -3.8428   -3.6007   -1.4707 C   0  0  0  0  0  0  0  0  0  0  0  0
   -5.1658   -4.0612   -1.0009 C   0  0  0  0  0  0  0  0  0  0  0  0
   -6.0865   -4.5897   -1.9316 C   0  0  0  0  0  0  0  0  0  0  0  0
   -7.3108   -5.0356   -1.5255 C   0  0  0  0  0  0  0  0  0  0  0  0
   -7.6892   -4.9771   -0.1675 C   0  0  0  0  0  0  0  0  0  0  0  0
   -8.9446   -5.4326    0.2845 C   0  0  0  0  0  0  0  0  0  0  0  0
   -9.2770   -5.3627    1.6085 C   0  0  0  0  0  0  0  0  0  0  0  0
   -8.3696   -4.8337    2.5401 C   0  0  0  0  0  0  0  0  0  0  0  0
   -7.1451   -4.3836    2.1333 C   0  0  0  0  0  0  0  0  0  0  0  0
   -6.7711   -4.4426    0.7741 C   0  0  0  0  0  0  0  0  0  0  0  0
   -5.5135   -3.9925    0.3254 C   0  0  0  0  0  0  0  0  0  0  0  0
   -3.7542   -2.4716   -2.2979 C   0  0  0  0  0  0  0  0  0  0  0  0
   -2.4805   -2.0429   -2.7849 C   0  0  0  0  0  0  0  0  0  0  0  0
   -2.4219   -0.8874   -3.6074 C   0  0  0  0  0  0  0  0  0  0  0  0
   -3.5485   -0.1971   -3.9325 C   0  0  0  0  0  0  0  0  0  0  0  0
   -4.8038   -0.6139   -3.4464 C   0  0  0  0  0  0  0  0  0  0  0  0
   -4.9017   -1.7130   -2.6500 C   0  0  0  0  0  0  0  0  0  0  0  0
    0.3631   -2.4751   -4.2298 C   0  0  0  0  0  0  0  0  0  0  0  0
    1.6073   -2.0114   -4.7012 C   0  0  0  0  0  0  0  0  0  0  0  0
    2.5108   -1.3916   -3.7981 C   0  0  0  0  0  0  0  0  0  0  0  0
    3.7156   -0.8619   -4.3063 C   0  0  0  0  0  0  0  0  0  0  0  0
    4.0296   -0.9823   -5.6317 C   0  0  0  0  0  0  0  0  0  0  0  0
    3.1569   -1.6344   -6.5151 C   0  0  0  0  0  0  0  0  0  0  0  0
    1.9683   -2.1311   -6.0598 C   0  0  0  0  0  0  0  0  0  0  0  0
   -1.7431    0.7841   -0.4714 H   0  0  0  0  0  0  0  0  0  0  0  0
    3.3463    2.7686   -1.4714 H   0  0  0  0  0  0  0  0  0  0  0  0
    2.9477    4.9440   -2.5265 H   0  0  0  0  0  0  0  0  0  0  0  0
    2.0119    6.8120   -1.2146 H   0  0  0  0  0  0  0  0  0  0  0  0
    1.4684    6.5101    1.1558 H   0  0  0  0  0  0  0  0  0  0  0  0
    2.9802    5.6701    4.5062 H   0  0  0  0  0  0  0  0  0  0  0  0
    3.2376    7.4034    6.2322 H   0  0  0  0  0  0  0  0  0  0  0  0
    2.3021    9.2912    7.5077 H   0  0  0  0  0  0  0  0  0  0  0  0
    0.0000   10.0565    7.0850 H   0  0  0  0  0  0  0  0  0  0  0  0
   -1.3872    8.9393    5.3842 H   0  0  0  0  0  0  0  0  0  0  0  0
   -1.6471    7.1949    3.6634 H   0  0  0  0  0  0  0  0  0  0  0  0
   -0.7031    5.3121    2.3834 H   0  0  0  0  0  0  0  0  0  0  0  0
    3.0577   -0.1595    2.4883 H   0  0  0  0  0  0  0  0  0  0  0  0
    2.4617   -0.4770    4.8417 H   0  0  0  0  0  0  0  0  0  0  0  0
    1.5374    1.3940    6.1579 H   0  0  0  0  0  0  0  0  0  0  0  0
    1.1977    3.5880    5.1208 H   0  0  0  0  0  0  0  0  0  0  0  0
    5.3038    1.0345    1.2285 H   0  0  0  0  0  0  0  0  0  0  0  0
    4.2083   -2.8963   -2.5014 H   0  0  0  0  0  0  0  0  0  0  0  0
    6.4602   -3.7300   -2.0259 H   0  0  0  0  0  0  0  0  0  0  0  0
    7.9224   -2.5469   -0.4308 H   0  0  0  0  0  0  0  0  0  0  0  0
    7.0939   -0.5484    0.7507 H   0  0  0  0  0  0  0  0  0  0  0  0
    0.7061   -4.2788   -1.5650 H   0  0  0  0  0  0  0  0  0  0  0  0
    0.5373   -6.2379   -0.1050 H   0  0  0  0  0  0  0  0  0  0  0  0
   -1.6660   -7.0077    0.6960 H   0  0  0  0  0  0  0  0  0  0  0  0
   -3.7035   -5.8098    0.0570 H   0  0  0  0  0  0  0  0  0  0  0  0
   -5.7986   -4.6421   -2.9720 H   0  0  0  0  0  0  0  0  0  0  0  0
   -8.0100   -5.4431   -2.2422 H   0  0  0  0  0  0  0  0  0  0  0  0
   -9.6392   -5.8392   -0.4371 H   0  0  0  0  0  0  0  0  0  0  0  0
  -10.2402   -5.7143    1.9485 H   0  0  0  0  0  0  0  0  0  0  0  0
   -8.6492   -4.7864    3.5825 H   0  0  0  0  0  0  0  0  0  0  0  0
   -6.4423   -3.9766    2.8463 H   0  0  0  0  0  0  0  0  0  0  0  0
   -4.8173   -3.5819    1.0436 H   0  0  0  0  0  0  0  0  0  0  0  0
   -1.4588   -0.5547   -3.9634 H   0  0  0  0  0  0  0  0  0  0  0  0
   -3.4887    0.6813   -4.5583 H   0  0  0  0  0  0  0  0  0  0  0  0
   -5.6866   -0.0475   -3.7052 H   0  0  0  0  0  0  0  0  0  0  0  0
   -5.8623   -2.0205   -2.2641 H   0  0  0  0  0  0  0  0  0  0  0  0
   -0.3175   -2.9506   -4.9212 H   0  0  0  0  0  0  0  0  0  0  0  0
    4.3879   -0.3490   -3.6357 H   0  0  0  0  0  0  0  0  0  0  0  0
    4.9544   -0.5699   -6.0071 H   0  0  0  0  0  0  0  0  0  0  0  0
    3.4258   -1.7287   -7.5567 H   0  0  0  0  0  0  0  0  0  0  0  0
    1.2781   -2.6166   -6.7345 H   0  0  0  0  0  0  0  0  0  0  0  0
  2  1  2  0  0  0  0
  3 74  1  0  0  0  0
  3  2  1  0  0  0  0
  4  5  1  0  0  0  0
  4  2  1  0  0  0  0
  5  6  1  0  0  0  0
  6 31  2  0  0  0  0
  6  7  1  0  0  0  0
  7 26  1  0  0  0  0
  8  7  2  0  0  0  0
  8 13  1  0  0  0  0
  9  8  1  0  0  0  0
 10  9  2  0  0  0  0
 10 11  1  0  0  0  0
 11 12  2  0  0  0  0
 12 78  1  0  0  0  0
 12 13  1  0  0  0  0
 13 14  2  0  0  0  0
 14 25  1  0  0  0  0
 14 15  1  0  0  0  0
 15 16  1  0  0  0  0
 16 79  1  0  0  0  0
 16 17  2  0  0  0  0
 17 18  1  0  0  0  0
 18 80  1  0  0  0  0
 18 19  2  0  0  0  0
 19 81  1  0  0  0  0
 20 19  1  0  0  0  0
 20 82  1  0  0  0  0
 21 20  2  0  0  0  0
 22 17  1  0  0  0  0
 22 21  1  0  0  0  0
 23 22  2  0  0  0  0
 24 15  2  0  0  0  0
 24 23  1  0  0  0  0
 25 30  1  0  0  0  0
 26 27  1  0  0  0  0
 26 25  2  0  0  0  0
 27 28  2  0  0  0  0
 28 87  1  0  0  0  0
 28 29  1  0  0  0  0
 29 88  1  0  0  0  0
 30 89  1  0  0  0  0
 30 29  2  0  0  0  0
 31 90  1  0  0  0  0
 32 37  1  0  0  0  0
 32 31  1  0  0  0  0
 33 32  2  0  0  0  0
 34 35  2  0  0  0  0
 34 33  1  0  0  0  0
 35 36  1  0  0  0  0
 36 93  1  0  0  0  0
 36 37  2  0  0  0  0
 37 94  1  0  0  0  0
 38 33  1  0  0  0  0
 38  5  2  0  0  0  0
 39 40  1  0  0  0  0
 39 38  1  0  0  0  0
 40 41  1  0  0  0  0
 41  2  1  0  0  0  0
 42 43  1  0  0  0  0
 42 40  2  0  0  0  0
 43 44  1  0  0  0  0
 44 45  2  0  0  0  0
 44 49  1  0  0  0  0
 45 46  1  0  0  0  0
 46 96  1  0  0  0  0
 46 47  2  0  0  0  0
 47 97  1  0  0  0  0
 48 98  1  0  0  0  0
 48 47  1  0  0  0  0
 49 48  2  0  0  0  0
 50 49  1  0  0  0  0
 50 51  1  0  0  0  0
 51 60  1  0  0  0  0
 52 53  1  0  0  0  0
 52 51  2  0  0  0  0
 53 54  2  0  0  0  0
 54 55  1  0  0  0  0
 54 59  1  0  0  0  0
 55 56  2  0  0  0  0
 56102  1  0  0  0  0
 56 57  1  0  0  0  0
 57103  1  0  0  0  0
 58 57  2  0  0  0  0
 58104  1  0  0  0  0
 59 58  1  0  0  0  0
 60 59  2  0  0  0  0
 60105  1  0  0  0  0
 61 50  2  0  0  0  0
 62 43  2  0  0  0  0
 62 61  1  0  0  0  0
 63 62  1  0  0  0  0
 64 63  2  0  0  0  0
 64 65  1  0  0  0  0
 65 66  2  0  0  0  0
 66 61  1  0  0  0  0
 66109  1  0  0  0  0
 67 42  1  0  0  0  0
 68 67  2  0  0  0  0
 68 69  1  0  0  0  0
 69 39  2  0  0  0  0
 70 69  1  0  0  0  0
 70111  1  0  0  0  0
 71 70  2  0  0  0  0
 72 73  2  0  0  0  0
 72 71  1  0  0  0  0
 73 68  1  0  0  0  0
 75  9  1  0  0  0  0
 76 10  1  0  0  0  0
 77 11  1  0  0  0  0
 83 21  1  0  0  0  0
 84 23  1  0  0  0  0
 85 24  1  0  0  0  0
 86 27  1  0  0  0  0
 91 34  1  0  0  0  0
 92 35  1  0  0  0  0
 95 45  1  0  0  0  0
 99 52  1  0  0  0  0
100 53  1  0  0  0  0
101 55  1  0  0  0  0
106 63  1  0  0  0  0
107 64  1  0  0  0  0
108 65  1  0  0  0  0
110 67  1  0  0  0  0
112 71  1  0  0  0  0
113 72  1  0  0  0  0
114 73  1  0  0  0  0
M  END
$$$$
