Standard file
 OpenBabel12142210053D

184194  0  0  0  0  0  0  0  0999 V2000
   -0.7009    1.9536   -0.3478 O   0  0  0  0  0  0  0  0  0  0  0  0
   -0.5167    0.5274   -0.1738 P   0  0  0  0  0  0  0  0  0  0  0  0
   -1.8251   -0.3435   -0.3573 O   0  0  0  0  0  0  0  0  0  0  0  0
    0.5890   -0.0419   -1.1975 O   0  0  0  0  0  0  0  0  0  0  0  0
    1.2429   -1.2355   -0.9277 C   0  0  0  0  0  0  0  0  0  0  0  0
    1.0242   -2.3240   -1.7585 C   0  0  0  0  0  0  0  0  0  0  0  0
    0.0373   -2.1460   -3.3665 Si  0  0  0  0  0  0  0  0  0  0  0  0
   -0.6302   -3.8849   -3.7296 C   0  0  0  0  0  0  0  0  0  0  0  0
   -1.3002   -4.6233   -2.7611 C   0  0  0  0  0  0  0  0  0  0  0  0
   -1.7688   -5.9003   -3.0141 C   0  0  0  0  0  0  0  0  0  0  0  0
   -1.5842   -6.4990   -4.2545 C   0  0  0  0  0  0  0  0  0  0  0  0
   -2.0628   -7.9055   -4.5783 C   0  0  0  0  0  0  0  0  0  0  0  0
   -2.7801   -8.5727   -3.4016 C   0  0  0  0  0  0  0  0  0  0  0  0
   -3.0397   -7.8437   -5.7607 C   0  0  0  0  0  0  0  0  0  0  0  0
   -0.8498   -8.7700   -4.9511 C   0  0  0  0  0  0  0  0  0  0  0  0
   -0.9182   -5.7581   -5.2281 C   0  0  0  0  0  0  0  0  0  0  0  0
   -0.4547   -4.4832   -4.9719 C   0  0  0  0  0  0  0  0  0  0  0  0
   -1.3619   -0.8827   -3.4465 C   0  0  0  0  0  0  0  0  0  0  0  0
   -2.7031   -1.2500   -3.4406 C   0  0  0  0  0  0  0  0  0  0  0  0
   -3.6991   -0.3161   -3.6456 C   0  0  0  0  0  0  0  0  0  0  0  0
   -3.4006    1.0254   -3.8709 C   0  0  0  0  0  0  0  0  0  0  0  0
   -4.5233    2.0108   -4.1535 C   0  0  0  0  0  0  0  0  0  0  0  0
   -5.4693    2.0389   -2.9476 C   0  0  0  0  0  0  0  0  0  0  0  0
   -4.0127    3.4347   -4.3884 C   0  0  0  0  0  0  0  0  0  0  0  0
   -5.2840    1.5595   -5.4087 C   0  0  0  0  0  0  0  0  0  0  0  0
   -2.0623    1.3970   -3.8396 C   0  0  0  0  0  0  0  0  0  0  0  0
   -1.0664    0.4623   -3.6355 C   0  0  0  0  0  0  0  0  0  0  0  0
    1.2944   -1.6508   -4.6980 C   0  0  0  0  0  0  0  0  0  0  0  0
    2.6680   -1.7176   -4.4906 C   0  0  0  0  0  0  0  0  0  0  0  0
    3.5608   -1.3379   -5.4731 C   0  0  0  0  0  0  0  0  0  0  0  0
    3.1251   -0.8743   -6.7121 C   0  0  0  0  0  0  0  0  0  0  0  0
    4.1457   -0.4617   -7.7610 C   0  0  0  0  0  0  0  0  0  0  0  0
    3.4958    0.0259   -9.0587 C   0  0  0  0  0  0  0  0  0  0  0  0
    5.0054    0.6794   -7.1990 C   0  0  0  0  0  0  0  0  0  0  0  0
    5.0355   -1.6674   -8.0949 C   0  0  0  0  0  0  0  0  0  0  0  0
    1.7528   -0.8100   -6.9222 C   0  0  0  0  0  0  0  0  0  0  0  0
    0.8605   -1.1886   -5.9354 C   0  0  0  0  0  0  0  0  0  0  0  0
    1.6806   -3.5060   -1.4443 C   0  0  0  0  0  0  0  0  0  0  0  0
    2.4825   -3.6352   -0.3185 C   0  0  0  0  0  0  0  0  0  0  0  0
    2.7036   -2.5265    0.4956 C   0  0  0  0  0  0  0  0  0  0  0  0
    3.4678   -2.6539    1.7859 C   0  0  0  0  0  0  0  0  0  0  0  0
    4.3984   -3.8606    1.7918 C   0  0  0  0  0  0  0  0  0  0  0  0
    3.6124   -5.1039    1.3972 C   0  0  0  0  0  0  0  0  0  0  0  0
    3.1355   -4.9644   -0.0436 C   0  0  0  0  0  0  0  0  0  0  0  0
    2.1186   -1.3020    0.1513 C   0  0  0  0  0  0  0  0  0  0  0  0
    2.3568   -0.0702    0.9315 C   0  0  0  0  0  0  0  0  0  0  0  0
    1.2622    0.5292    1.5461 C   0  0  0  0  0  0  0  0  0  0  0  0
    0.0000    0.0000    1.2681 O   0  0  0  0  0  0  0  0  0  0  0  0
    1.3752    1.6390    2.3606 C   0  0  0  0  0  0  0  0  0  0  0  0
   -0.1321    2.2600    3.3229 Si  0  0  0  0  0  0  0  0  0  0  0  0
   -1.8583    2.0055    2.6027 C   0  0  0  0  0  0  0  0  0  0  0  0
   -2.4893    0.7721    2.7328 C   0  0  0  0  0  0  0  0  0  0  0  0
   -3.7865    0.5840    2.3066 C   0  0  0  0  0  0  0  0  0  0  0  0
   -4.5183    1.6205    1.7324 C   0  0  0  0  0  0  0  0  0  0  0  0
   -5.9598    1.3707    1.3199 C   0  0  0  0  0  0  0  0  0  0  0  0
   -5.9904    0.2067    0.3183 C   0  0  0  0  0  0  0  0  0  0  0  0
   -6.6099    2.5961    0.6729 C   0  0  0  0  0  0  0  0  0  0  0  0
   -6.7802    1.0070    2.5666 C   0  0  0  0  0  0  0  0  0  0  0  0
   -3.8807    2.8446    1.5810 C   0  0  0  0  0  0  0  0  0  0  0  0
   -2.5788    3.0328    2.0106 C   0  0  0  0  0  0  0  0  0  0  0  0
   -0.1202    1.2644    4.9438 C   0  0  0  0  0  0  0  0  0  0  0  0
    0.9248    0.4234    5.3033 C   0  0  0  0  0  0  0  0  0  0  0  0
    0.8898   -0.3215    6.4698 C   0  0  0  0  0  0  0  0  0  0  0  0
   -0.1970   -0.2559    7.3324 C   0  0  0  0  0  0  0  0  0  0  0  0
   -0.2947   -1.0717    8.6120 C   0  0  0  0  0  0  0  0  0  0  0  0
   -1.5088   -2.0063    8.5101 C   0  0  0  0  0  0  0  0  0  0  0  0
    0.9486   -1.9293    8.8637 C   0  0  0  0  0  0  0  0  0  0  0  0
   -0.4692   -0.1227    9.8057 C   0  0  0  0  0  0  0  0  0  0  0  0
   -1.2425    0.5948    6.9785 C   0  0  0  0  0  0  0  0  0  0  0  0
   -1.2045    1.3346    5.8144 C   0  0  0  0  0  0  0  0  0  0  0  0
    0.1964    4.0914    3.6732 C   0  0  0  0  0  0  0  0  0  0  0  0
    0.4613    4.9781    2.6353 C   0  0  0  0  0  0  0  0  0  0  0  0
    0.7173    6.3164    2.8765 C   0  0  0  0  0  0  0  0  0  0  0  0
    0.7244    6.8253    4.1701 C   0  0  0  0  0  0  0  0  0  0  0  0
    1.0138    8.2841    4.4888 C   0  0  0  0  0  0  0  0  0  0  0  0
    2.2698    8.3605    5.3688 C   0  0  0  0  0  0  0  0  0  0  0  0
    1.2577    9.1273    3.2344 C   0  0  0  0  0  0  0  0  0  0  0  0
   -0.1835    8.8828    5.2403 C   0  0  0  0  0  0  0  0  0  0  0  0
    0.4596    5.9361    5.2091 C   0  0  0  0  0  0  0  0  0  0  0  0
    0.1996    4.6022    4.9661 C   0  0  0  0  0  0  0  0  0  0  0  0
    2.6438    2.1868    2.5231 C   0  0  0  0  0  0  0  0  0  0  0  0
    3.7370    1.6773    1.8454 C   0  0  0  0  0  0  0  0  0  0  0  0
    3.6043    0.5397    1.0495 C   0  0  0  0  0  0  0  0  0  0  0  0
    4.8109    0.1124    0.2686 C   0  0  0  0  0  0  0  0  0  0  0  0
    6.0921    0.0691    1.1215 C   0  0  0  0  0  0  0  0  0  0  0  0
    6.0842    1.1030    2.2562 C   0  0  0  0  0  0  0  0  0  0  0  0
    5.1159    2.2521    1.9609 C   0  0  0  0  0  0  0  0  0  0  0  0
   -1.7594   -1.2380   -0.0236 H   0  0  0  0  0  0  0  0  0  0  0  0
   -1.4519   -4.1930   -1.7798 H   0  0  0  0  0  0  0  0  0  0  0  0
   -2.2793   -6.4246   -2.2218 H   0  0  0  0  0  0  0  0  0  0  0  0
   -2.1190   -8.6693   -2.5434 H   0  0  0  0  0  0  0  0  0  0  0  0
   -3.6629   -8.0082   -3.1106 H   0  0  0  0  0  0  0  0  0  0  0  0
   -3.1007   -9.5714   -3.6919 H   0  0  0  0  0  0  0  0  0  0  0  0
   -3.4027   -8.8412   -5.9998 H   0  0  0  0  0  0  0  0  0  0  0  0
   -3.8926   -7.2160   -5.5109 H   0  0  0  0  0  0  0  0  0  0  0  0
   -2.5637   -7.4335   -6.6469 H   0  0  0  0  0  0  0  0  0  0  0  0
   -0.1436   -8.8036   -4.1239 H   0  0  0  0  0  0  0  0  0  0  0  0
   -0.3345   -8.3743   -5.8219 H   0  0  0  0  0  0  0  0  0  0  0  0
   -1.1678   -9.7861   -5.1754 H   0  0  0  0  0  0  0  0  0  0  0  0
   -0.7503   -6.1810   -6.2078 H   0  0  0  0  0  0  0  0  0  0  0  0
    0.0644   -3.9399   -5.7483 H   0  0  0  0  0  0  0  0  0  0  0  0
   -2.9706   -2.2876   -3.2915 H   0  0  0  0  0  0  0  0  0  0  0  0
   -4.7271   -0.6493   -3.6418 H   0  0  0  0  0  0  0  0  0  0  0  0
   -6.2443    2.7898   -3.0901 H   0  0  0  0  0  0  0  0  0  0  0  0
   -5.9518    1.0769   -2.7995 H   0  0  0  0  0  0  0  0  0  0  0  0
   -4.9019    2.2826   -2.0520 H   0  0  0  0  0  0  0  0  0  0  0  0
   -3.3469    3.4756   -5.2475 H   0  0  0  0  0  0  0  0  0  0  0  0
   -4.8559    4.0947   -4.5850 H   0  0  0  0  0  0  0  0  0  0  0  0
   -3.4885    3.8069   -3.5117 H   0  0  0  0  0  0  0  0  0  0  0  0
   -5.7110    0.5688   -5.2789 H   0  0  0  0  0  0  0  0  0  0  0  0
   -4.6130    1.5311   -6.2650 H   0  0  0  0  0  0  0  0  0  0  0  0
   -6.0932    2.2538   -5.6266 H   0  0  0  0  0  0  0  0  0  0  0  0
   -1.7722    2.4243   -3.9833 H   0  0  0  0  0  0  0  0  0  0  0  0
   -0.0359    0.7843   -3.6381 H   0  0  0  0  0  0  0  0  0  0  0  0
    3.0433   -2.0677   -3.5390 H   0  0  0  0  0  0  0  0  0  0  0  0
    4.6185   -1.4042   -5.2625 H   0  0  0  0  0  0  0  0  0  0  0  0
    2.8724    0.8988   -8.8796 H   0  0  0  0  0  0  0  0  0  0  0  0
    4.2710    0.3068   -9.7691 H   0  0  0  0  0  0  0  0  0  0  0  0
    2.8922   -0.7566   -9.5127 H   0  0  0  0  0  0  0  0  0  0  0  0
    5.7319    1.0028   -7.9417 H   0  0  0  0  0  0  0  0  0  0  0  0
    4.3770    1.5282   -6.9374 H   0  0  0  0  0  0  0  0  0  0  0  0
    5.5443    0.3682   -6.3084 H   0  0  0  0  0  0  0  0  0  0  0  0
    5.5717   -2.0191   -7.2178 H   0  0  0  0  0  0  0  0  0  0  0  0
    4.4294   -2.4873   -8.4750 H   0  0  0  0  0  0  0  0  0  0  0  0
    5.7655   -1.3962   -8.8550 H   0  0  0  0  0  0  0  0  0  0  0  0
    1.3564   -0.4589   -7.8615 H   0  0  0  0  0  0  0  0  0  0  0  0
   -0.2011   -1.1167   -6.1282 H   0  0  0  0  0  0  0  0  0  0  0  0
    1.5373   -4.3627   -2.0874 H   0  0  0  0  0  0  0  0  0  0  0  0
    4.0224   -1.7414    1.9959 H   0  0  0  0  0  0  0  0  0  0  0  0
    2.7321   -2.7660    2.5910 H   0  0  0  0  0  0  0  0  0  0  0  0
    5.2128   -3.7044    1.0805 H   0  0  0  0  0  0  0  0  0  0  0  0
    4.8362   -3.9829    2.7845 H   0  0  0  0  0  0  0  0  0  0  0  0
    2.7531   -5.2132    2.0624 H   0  0  0  0  0  0  0  0  0  0  0  0
    4.2303   -5.9985    1.4962 H   0  0  0  0  0  0  0  0  0  0  0  0
    2.4393   -5.7681   -0.2937 H   0  0  0  0  0  0  0  0  0  0  0  0
    3.9946   -5.0636   -0.7162 H   0  0  0  0  0  0  0  0  0  0  0  0
   -1.9574   -0.0494    3.1929 H   0  0  0  0  0  0  0  0  0  0  0  0
   -4.2389   -0.3888    2.4366 H   0  0  0  0  0  0  0  0  0  0  0  0
   -6.9797    0.1168   -0.1262 H   0  0  0  0  0  0  0  0  0  0  0  0
   -5.7518   -0.7352    0.8048 H   0  0  0  0  0  0  0  0  0  0  0  0
   -5.2616    0.3724   -0.4713 H   0  0  0  0  0  0  0  0  0  0  0  0
   -6.0709    2.8997   -0.2195 H   0  0  0  0  0  0  0  0  0  0  0  0
   -6.6442    3.4309    1.3693 H   0  0  0  0  0  0  0  0  0  0  0  0
   -7.6321    2.3573    0.3848 H   0  0  0  0  0  0  0  0  0  0  0  0
   -7.8132    0.8054    2.2895 H   0  0  0  0  0  0  0  0  0  0  0  0
   -6.3802    0.1263    3.0615 H   0  0  0  0  0  0  0  0  0  0  0  0
   -6.7676    1.8306    3.2776 H   0  0  0  0  0  0  0  0  0  0  0  0
   -4.3946    3.6792    1.1314 H   0  0  0  0  0  0  0  0  0  0  0  0
   -2.1188    4.0022    1.8898 H   0  0  0  0  0  0  0  0  0  0  0  0
    1.7841    0.3416    4.6517 H   0  0  0  0  0  0  0  0  0  0  0  0
    1.7293   -0.9612    6.6925 H   0  0  0  0  0  0  0  0  0  0  0  0
   -1.5960   -2.6098    9.4115 H   0  0  0  0  0  0  0  0  0  0  0  0
   -1.3985   -2.6727    7.6569 H   0  0  0  0  0  0  0  0  0  0  0  0
   -2.4302   -1.4441    8.3849 H   0  0  0  0  0  0  0  0  0  0  0  0
    1.8377   -1.3098    8.9572 H   0  0  0  0  0  0  0  0  0  0  0  0
    1.0978   -2.6485    8.0616 H   0  0  0  0  0  0  0  0  0  0  0  0
    0.8252   -2.4834    9.7923 H   0  0  0  0  0  0  0  0  0  0  0  0
   -0.5230   -0.6911   10.7322 H   0  0  0  0  0  0  0  0  0  0  0  0
    0.3752    0.5606    9.8680 H   0  0  0  0  0  0  0  0  0  0  0  0
   -1.3775    0.4661    9.7153 H   0  0  0  0  0  0  0  0  0  0  0  0
   -2.1091    0.6816    7.6178 H   0  0  0  0  0  0  0  0  0  0  0  0
   -2.0372    1.9777    5.5658 H   0  0  0  0  0  0  0  0  0  0  0  0
    0.4705    4.6096    1.6190 H   0  0  0  0  0  0  0  0  0  0  0  0
    0.9149    6.9588    2.0332 H   0  0  0  0  0  0  0  0  0  0  0  0
    2.1315    7.8224    6.3025 H   0  0  0  0  0  0  0  0  0  0  0  0
    2.5019    9.3975    5.6033 H   0  0  0  0  0  0  0  0  0  0  0  0
    3.1203    7.9253    4.8479 H   0  0  0  0  0  0  0  0  0  0  0  0
    0.3871    9.1181    2.5827 H   0  0  0  0  0  0  0  0  0  0  0  0
    2.1211    8.7656    2.6809 H   0  0  0  0  0  0  0  0  0  0  0  0
    1.4517   10.1588    3.5225 H   0  0  0  0  0  0  0  0  0  0  0  0
   -1.0825    8.8108    4.6319 H   0  0  0  0  0  0  0  0  0  0  0  0
    0.0000    9.9320    5.4635 H   0  0  0  0  0  0  0  0  0  0  0  0
   -0.3643    8.3630    6.1769 H   0  0  0  0  0  0  0  0  0  0  0  0
    0.4580    6.2844    6.2319 H   0  0  0  0  0  0  0  0  0  0  0  0
    0.0035    3.9379    5.7956 H   0  0  0  0  0  0  0  0  0  0  0  0
    2.7618    3.0498    3.1622 H   0  0  0  0  0  0  0  0  0  0  0  0
    4.9481    0.8560   -0.5234 H   0  0  0  0  0  0  0  0  0  0  0  0
    4.6457   -0.8485   -0.2187 H   0  0  0  0  0  0  0  0  0  0  0  0
    6.2158   -0.9282    1.5473 H   0  0  0  0  0  0  0  0  0  0  0  0
    6.9457    0.2447    0.4644 H   0  0  0  0  0  0  0  0  0  0  0  0
    7.0912    1.4915    2.4140 H   0  0  0  0  0  0  0  0  0  0  0  0
    5.7645    0.6278    3.1863 H   0  0  0  0  0  0  0  0  0  0  0  0
    5.4005    2.7368    1.0229 H   0  0  0  0  0  0  0  0  0  0  0  0
    5.1545    2.9986    2.7550 H   0  0  0  0  0  0  0  0  0  0  0  0
  1  2  2  0  0  0  0
  2 48  1  0  0  0  0
  3  2  1  0  0  0  0
  3 88  1  0  0  0  0
  4  5  1  0  0  0  0
  4  2  1  0  0  0  0
  5 45  1  0  0  0  0
  6 38  1  0  0  0  0
  6  5  2  0  0  0  0
  7  6  1  0  0  0  0
  8  7  1  0  0  0  0
  8  9  1  0  0  0  0
  9 89  1  0  0  0  0
 10  9  2  0  0  0  0
 10 90  1  0  0  0  0
 11 10  1  0  0  0  0
 12 11  1  0  0  0  0
 12 13  1  0  0  0  0
 13 92  1  0  0  0  0
 13 91  1  0  0  0  0
 14 95  1  0  0  0  0
 14 12  1  0  0  0  0
 15 12  1  0  0  0  0
 15 97  1  0  0  0  0
 16 17  1  0  0  0  0
 16 11  2  0  0  0  0
 17  8  2  0  0  0  0
 18 19  1  0  0  0  0
 18  7  1  0  0  0  0
 19102  1  0  0  0  0
 20103  1  0  0  0  0
 20 19  2  0  0  0  0
 21 26  2  0  0  0  0
 21 20  1  0  0  0  0
 22 21  1  0  0  0  0
 22 23  1  0  0  0  0
 23105  1  0  0  0  0
 23106  1  0  0  0  0
 24 22  1  0  0  0  0
 24109  1  0  0  0  0
 25110  1  0  0  0  0
 25 22  1  0  0  0  0
 26 27  1  0  0  0  0
 27 18  2  0  0  0  0
 28 29  1  0  0  0  0
 28  7  1  0  0  0  0
 29115  1  0  0  0  0
 30116  1  0  0  0  0
 30 29  2  0  0  0  0
 31 30  1  0  0  0  0
 32 34  1  0  0  0  0
 32 31  1  0  0  0  0
 33117  1  0  0  0  0
 33 32  1  0  0  0  0
 34121  1  0  0  0  0
 34122  1  0  0  0  0
 35 32  1  0  0  0  0
 35123  1  0  0  0  0
 36 31  2  0  0  0  0
 36 37  1  0  0  0  0
 37 28  2  0  0  0  0
 38 39  2  0  0  0  0
 39 44  1  0  0  0  0
 39 40  1  0  0  0  0
 40 41  1  0  0  0  0
 41 42  1  0  0  0  0
 41129  1  0  0  0  0
 41130  1  0  0  0  0
 42132  1  0  0  0  0
 43134  1  0  0  0  0
 43 42  1  0  0  0  0
 43133  1  0  0  0  0
 44 43  1  0  0  0  0
 45 40  2  0  0  0  0
 45 46  1  0  0  0  0
 46 83  2  0  0  0  0
 46 47  1  0  0  0  0
 47 49  2  0  0  0  0
 48 47  1  0  0  0  0
 49 81  1  0  0  0  0
 49 50  1  0  0  0  0
 50 71  1  0  0  0  0
 50 61  1  0  0  0  0
 51 52  1  0  0  0  0
 51 50  1  0  0  0  0
 52137  1  0  0  0  0
 53138  1  0  0  0  0
 53 52  2  0  0  0  0
 54 53  1  0  0  0  0
 55 54  1  0  0  0  0
 55 58  1  0  0  0  0
 56140  1  0  0  0  0
 56 55  1  0  0  0  0
 57 55  1  0  0  0  0
 57143  1  0  0  0  0
 58146  1  0  0  0  0
 58147  1  0  0  0  0
 59 54  2  0  0  0  0
 59 60  1  0  0  0  0
 60 51  2  0  0  0  0
 61 62  2  0  0  0  0
 61 70  1  0  0  0  0
 62 63  1  0  0  0  0
 63151  1  0  0  0  0
 63 64  2  0  0  0  0
 64 65  1  0  0  0  0
 65 67  1  0  0  0  0
 65 68  1  0  0  0  0
 66 65  1  0  0  0  0
 66152  1  0  0  0  0
 67155  1  0  0  0  0
 67157  1  0  0  0  0
 68159  1  0  0  0  0
 68158  1  0  0  0  0
 69 64  1  0  0  0  0
 69161  1  0  0  0  0
 70 69  2  0  0  0  0
 71 80  1  0  0  0  0
 72 73  1  0  0  0  0
 72 71  2  0  0  0  0
 73 74  2  0  0  0  0
 74 75  1  0  0  0  0
 74 79  1  0  0  0  0
 75 78  1  0  0  0  0
 75 76  1  0  0  0  0
 76166  1  0  0  0  0
 76165  1  0  0  0  0
 77170  1  0  0  0  0
 77 75  1  0  0  0  0
 78172  1  0  0  0  0
 78173  1  0  0  0  0
 79174  1  0  0  0  0
 80 79  2  0  0  0  0
 80175  1  0  0  0  0
 81176  1  0  0  0  0
 82 87  1  0  0  0  0
 82 81  2  0  0  0  0
 83 82  1  0  0  0  0
 84 83  1  0  0  0  0
 84 85  1  0  0  0  0
 85179  1  0  0  0  0
 85 86  1  0  0  0  0
 86181  1  0  0  0  0
 86182  1  0  0  0  0
 87 86  1  0  0  0  0
 87184  1  0  0  0  0
 93 13  1  0  0  0  0
 94 14  1  0  0  0  0
 96 14  1  0  0  0  0
 98 15  1  0  0  0  0
 99 15  1  0  0  0  0
100 16  1  0  0  0  0
101 17  1  0  0  0  0
104 23  1  0  0  0  0
107 24  1  0  0  0  0
108 24  1  0  0  0  0
111 25  1  0  0  0  0
112 25  1  0  0  0  0
113 26  1  0  0  0  0
114 27  1  0  0  0  0
118 33  1  0  0  0  0
119 33  1  0  0  0  0
120 34  1  0  0  0  0
124 35  1  0  0  0  0
125 35  1  0  0  0  0
126 36  1  0  0  0  0
127 37  1  0  0  0  0
128 38  1  0  0  0  0
131 42  1  0  0  0  0
135 44  1  0  0  0  0
136 44  1  0  0  0  0
139 56  1  0  0  0  0
141 56  1  0  0  0  0
142 57  1  0  0  0  0
144 57  1  0  0  0  0
145 58  1  0  0  0  0
148 59  1  0  0  0  0
149 60  1  0  0  0  0
150 62  1  0  0  0  0
153 66  1  0  0  0  0
154 66  1  0  0  0  0
156 67  1  0  0  0  0
160 68  1  0  0  0  0
162 70  1  0  0  0  0
163 72  1  0  0  0  0
164 73  1  0  0  0  0
167 76  1  0  0  0  0
168 77  1  0  0  0  0
169 77  1  0  0  0  0
171 78  1  0  0  0  0
177 84  1  0  0  0  0
178 84  1  0  0  0  0
180 85  1  0  0  0  0
183 87  1  0  0  0  0
M  END
$$$$
