Standard file
 OpenBabel12142210053D

 86 98  0  0  0  0  0  0  0  0999 V2000
    0.3576    0.6984    2.6600 O   0  0  0  0  0  0  0  0  0  0  0  0
    0.0000    0.0000    1.4445 P   0  0  0  0  0  0  0  0  0  0  0  0
   -1.5550   -0.1007    1.1777 O   0  0  0  0  0  0  0  0  0  0  0  0
    0.5952   -1.4936    1.4274 O   0  0  0  0  0  0  0  0  0  0  0  0
    0.6044   -2.1844    0.2276 C   0  0  0  0  0  0  0  0  0  0  0  0
   -0.3381   -3.2207    0.0500 C   0  0  0  0  0  0  0  0  0  0  0  0
   -1.3073   -3.4958    1.1276 C   0  0  0  0  0  0  0  0  0  0  0  0
   -2.6812   -3.2844    0.9264 C   0  0  0  0  0  0  0  0  0  0  0  0
   -3.2082   -2.7499   -0.2882 C   0  0  0  0  0  0  0  0  0  0  0  0
   -4.5369   -2.5569   -0.4566 C   0  0  0  0  0  0  0  0  0  0  0  0
   -5.4694   -2.8776    0.5719 C   0  0  0  0  0  0  0  0  0  0  0  0
   -6.8442   -2.6990    0.4125 C   0  0  0  0  0  0  0  0  0  0  0  0
   -7.7188   -3.0156    1.4355 C   0  0  0  0  0  0  0  0  0  0  0  0
   -7.2458   -3.5103    2.6372 C   0  0  0  0  0  0  0  0  0  0  0  0
   -5.8785   -3.7013    2.8422 C   0  0  0  0  0  0  0  0  0  0  0  0
   -5.3582   -4.2024    4.0716 C   0  0  0  0  0  0  0  0  0  0  0  0
   -4.0284   -4.3747    4.2505 C   0  0  0  0  0  0  0  0  0  0  0  0
   -4.9744   -3.3868    1.7973 C   0  0  0  0  0  0  0  0  0  0  0  0
   -3.5833   -3.5806    1.9786 C   0  0  0  0  0  0  0  0  0  0  0  0
   -3.0967   -4.0708    3.2154 C   0  0  0  0  0  0  0  0  0  0  0  0
   -1.7212   -4.2368    3.3835 C   0  0  0  0  0  0  0  0  0  0  0  0
   -0.8458   -3.9500    2.3571 C   0  0  0  0  0  0  0  0  0  0  0  0
   -0.3273   -3.9287   -1.1251 C   0  0  0  0  0  0  0  0  0  0  0  0
    0.5653   -3.6054   -2.1657 C   0  0  0  0  0  0  0  0  0  0  0  0
    1.4796   -2.5314   -1.9969 C   0  0  0  0  0  0  0  0  0  0  0  0
    2.2902   -2.1598   -3.0904 C   0  0  0  0  0  0  0  0  0  0  0  0
    2.2365   -2.8503   -4.2694 C   0  0  0  0  0  0  0  0  0  0  0  0
    1.3687   -3.9424   -4.4183 C   0  0  0  0  0  0  0  0  0  0  0  0
    0.5448   -4.3051   -3.3910 C   0  0  0  0  0  0  0  0  0  0  0  0
    1.5092   -1.8416   -0.7518 C   0  0  0  0  0  0  0  0  0  0  0  0
    2.4272   -0.7119   -0.5087 C   0  0  0  0  0  0  0  0  0  0  0  0
    1.8892    0.5064   -0.1533 C   0  0  0  0  0  0  0  0  0  0  0  0
    0.5166    0.6120    0.0335 O   0  0  0  0  0  0  0  0  0  0  0  0
    2.6880    1.6577   -0.0047 C   0  0  0  0  0  0  0  0  0  0  0  0
    2.0599    2.9572    0.3207 C   0  0  0  0  0  0  0  0  0  0  0  0
    1.8125    3.2883    1.6457 C   0  0  0  0  0  0  0  0  0  0  0  0
    1.2521    4.5064    1.9763 C   0  0  0  0  0  0  0  0  0  0  0  0
    0.9301    5.4384    0.9891 C   0  0  0  0  0  0  0  0  0  0  0  0
    0.3678    6.7119    1.2986 C   0  0  0  0  0  0  0  0  0  0  0  0
    0.0693    7.6039    0.3265 C   0  0  0  0  0  0  0  0  0  0  0  0
    1.1730    5.1123   -0.3679 C   0  0  0  0  0  0  0  0  0  0  0  0
    1.7377    3.8576   -0.7057 C   0  0  0  0  0  0  0  0  0  0  0  0
    1.9579    3.5575   -2.0833 C   0  0  0  0  0  0  0  0  0  0  0  0
    1.6483    4.4463   -3.0552 C   0  0  0  0  0  0  0  0  0  0  0  0
    1.0920    5.7217   -2.7448 C   0  0  0  0  0  0  0  0  0  0  0  0
    0.7749    6.6568   -3.7312 C   0  0  0  0  0  0  0  0  0  0  0  0
    0.2379    7.8849   -3.3919 C   0  0  0  0  0  0  0  0  0  0  0  0
    0.0023    8.2087   -2.0683 C   0  0  0  0  0  0  0  0  0  0  0  0
    0.3013    7.3041   -1.0485 C   0  0  0  0  0  0  0  0  0  0  0  0
    0.8551    6.0440   -1.3859 C   0  0  0  0  0  0  0  0  0  0  0  0
    4.0429    1.5492   -0.1855 C   0  0  0  0  0  0  0  0  0  0  0  0
    4.6500    0.3090   -0.4651 C   0  0  0  0  0  0  0  0  0  0  0  0
    3.8382   -0.8446   -0.6239 C   0  0  0  0  0  0  0  0  0  0  0  0
    4.4661   -2.0893   -0.8415 C   0  0  0  0  0  0  0  0  0  0  0  0
    5.8271   -2.1788   -0.9356 C   0  0  0  0  0  0  0  0  0  0  0  0
    6.6270   -1.0325   -0.8175 C   0  0  0  0  0  0  0  0  0  0  0  0
    6.0504    0.1835   -0.5820 C   0  0  0  0  0  0  0  0  0  0  0  0
   -1.8210   -0.4906    0.3430 H   0  0  0  0  0  0  0  0  0  0  0  0
   -2.5197   -2.5037   -1.0857 H   0  0  0  0  0  0  0  0  0  0  0  0
   -4.9195   -2.1511   -1.3827 H   0  0  0  0  0  0  0  0  0  0  0  0
   -7.2205   -2.3090   -0.5225 H   0  0  0  0  0  0  0  0  0  0  0  0
   -8.7806   -2.8734    1.2956 H   0  0  0  0  0  0  0  0  0  0  0  0
   -7.9362   -3.7530    3.4323 H   0  0  0  0  0  0  0  0  0  0  0  0
   -6.0573   -4.4381    4.8614 H   0  0  0  0  0  0  0  0  0  0  0  0
   -3.6411   -4.7496    5.1872 H   0  0  0  0  0  0  0  0  0  0  0  0
   -1.3439   -4.5957    4.3299 H   0  0  0  0  0  0  0  0  0  0  0  0
    0.2163   -4.0859    2.4979 H   0  0  0  0  0  0  0  0  0  0  0  0
   -1.0298   -4.7376   -1.2656 H   0  0  0  0  0  0  0  0  0  0  0  0
    2.9531   -1.3145   -2.9897 H   0  0  0  0  0  0  0  0  0  0  0  0
    2.8631   -2.5537   -5.0972 H   0  0  0  0  0  0  0  0  0  0  0  0
    1.3474   -4.4822   -5.3532 H   0  0  0  0  0  0  0  0  0  0  0  0
   -0.1452   -5.1292   -3.5012 H   0  0  0  0  0  0  0  0  0  0  0  0
    2.0512    2.5764    2.4202 H   0  0  0  0  0  0  0  0  0  0  0  0
    1.0617    4.7448    3.0123 H   0  0  0  0  0  0  0  0  0  0  0  0
    0.1877    6.9469    2.3381 H   0  0  0  0  0  0  0  0  0  0  0  0
   -0.3540    8.5679    0.5719 H   0  0  0  0  0  0  0  0  0  0  0  0
    2.3794    2.5944   -2.3349 H   0  0  0  0  0  0  0  0  0  0  0  0
    1.8193    4.2059   -4.0953 H   0  0  0  0  0  0  0  0  0  0  0  0
    0.9550    6.4110   -4.7682 H   0  0  0  0  0  0  0  0  0  0  0  0
    0.0000    8.5980   -4.1682 H   0  0  0  0  0  0  0  0  0  0  0  0
   -0.4179    9.1711   -1.8125 H   0  0  0  0  0  0  0  0  0  0  0  0
    4.6625    2.4289   -0.0892 H   0  0  0  0  0  0  0  0  0  0  0  0
    3.8578   -2.9774   -0.9212 H   0  0  0  0  0  0  0  0  0  0  0  0
    6.2955   -3.1382   -1.0975 H   0  0  0  0  0  0  0  0  0  0  0  0
    7.6999   -1.1217   -0.9015 H   0  0  0  0  0  0  0  0  0  0  0  0
    6.6575    1.0700   -0.4697 H   0  0  0  0  0  0  0  0  0  0  0  0
  2  1  2  0  0  0  0
  3  2  1  0  0  0  0
  4  2  1  0  0  0  0
  5  4  1  0  0  0  0
  6  5  1  0  0  0  0
  6  7  1  0  0  0  0
  7 22  1  0  0  0  0
  8  7  2  0  0  0  0
  8 19  1  0  0  0  0
  9  8  1  0  0  0  0
 10  9  2  0  0  0  0
 10 11  1  0  0  0  0
 11 18  1  0  0  0  0
 12 11  2  0  0  0  0
 12 13  1  0  0  0  0
 13 14  2  0  0  0  0
 14 15  1  0  0  0  0
 14 63  1  0  0  0  0
 15 16  1  0  0  0  0
 16 17  2  0  0  0  0
 16 64  1  0  0  0  0
 17 65  1  0  0  0  0
 18 19  1  0  0  0  0
 18 15  2  0  0  0  0
 19 20  2  0  0  0  0
 20 21  1  0  0  0  0
 20 17  1  0  0  0  0
 21 66  1  0  0  0  0
 22 67  1  0  0  0  0
 22 21  2  0  0  0  0
 23  6  2  0  0  0  0
 24 25  1  0  0  0  0
 24 23  1  0  0  0  0
 25 30  1  0  0  0  0
 26 69  1  0  0  0  0
 26 25  2  0  0  0  0
 27 26  1  0  0  0  0
 28 27  2  0  0  0  0
 28 29  1  0  0  0  0
 29 24  2  0  0  0  0
 30 31  1  0  0  0  0
 30  5  2  0  0  0  0
 31 32  1  0  0  0  0
 32 34  2  0  0  0  0
 32 33  1  0  0  0  0
 33  2  1  0  0  0  0
 34 35  1  0  0  0  0
 35 36  1  0  0  0  0
 36 37  2  0  0  0  0
 36 73  1  0  0  0  0
 37 74  1  0  0  0  0
 38 39  1  0  0  0  0
 38 37  1  0  0  0  0
 39 75  1  0  0  0  0
 40 76  1  0  0  0  0
 40 39  2  0  0  0  0
 41 38  2  0  0  0  0
 42 41  1  0  0  0  0
 42 35  2  0  0  0  0
 43 42  1  0  0  0  0
 44 45  1  0  0  0  0
 44 43  2  0  0  0  0
 45 50  1  0  0  0  0
 46 47  1  0  0  0  0
 46 45  2  0  0  0  0
 47 48  2  0  0  0  0
 48 81  1  0  0  0  0
 48 49  1  0  0  0  0
 49 40  1  0  0  0  0
 50 49  2  0  0  0  0
 50 41  1  0  0  0  0
 51 82  1  0  0  0  0
 51 34  1  0  0  0  0
 52 51  2  0  0  0  0
 53 31  2  0  0  0  0
 53 52  1  0  0  0  0
 54 53  1  0  0  0  0
 55 54  2  0  0  0  0
 55 56  1  0  0  0  0
 56 57  2  0  0  0  0
 57 86  1  0  0  0  0
 57 52  1  0  0  0  0
 58  3  1  0  0  0  0
 59  9  1  0  0  0  0
 60 10  1  0  0  0  0
 61 12  1  0  0  0  0
 62 13  1  0  0  0  0
 68 23  1  0  0  0  0
 70 27  1  0  0  0  0
 71 28  1  0  0  0  0
 72 29  1  0  0  0  0
 77 43  1  0  0  0  0
 78 44  1  0  0  0  0
 79 46  1  0  0  0  0
 80 47  1  0  0  0  0
 83 54  1  0  0  0  0
 84 55  1  0  0  0  0
 85 56  1  0  0  0  0
M  END
$$$$
