Standard file
 OpenBabel12142210053D

 33 35  0  0  0  0  0  0  0  0999 V2000
   -0.0017   -2.0245    2.0758 O   0  0  0  0  0  0  0  0  0  0  0  0
    0.0008   -0.8107    2.1008 C   0  0  0  0  0  0  0  0  0  0  0  0
   -0.0008   -0.0240    3.3529 C   0  0  0  0  0  0  0  0  0  0  0  0
   -0.0020   -0.7016    4.5715 C   0  0  0  0  0  0  0  0  0  0  0  0
   -0.0013    0.0033    5.7590 C   0  0  0  0  0  0  0  0  0  0  0  0
   -0.0001    1.3896    5.7403 C   0  0  0  0  0  0  0  0  0  0  0  0
    0.0007    2.0693    4.5320 C   0  0  0  0  0  0  0  0  0  0  0  0
    0.0003    1.3691    3.3408 C   0  0  0  0  0  0  0  0  0  0  0  0
    0.0000    0.0000    0.9528 N   0  0  0  0  0  0  0  0  0  0  0  0
   -0.0021   -0.5794   -0.1883 C   0  0  0  0  0  0  0  0  0  0  0  0
    0.0004    0.1744   -1.4182 C   0  0  0  0  0  0  0  0  0  0  0  0
    0.0019    1.5577   -1.3384 C   0  0  0  0  0  0  0  0  0  0  0  0
    0.0026    2.3565   -2.4800 C   0  0  0  0  0  0  0  0  0  0  0  0
    0.0023    1.7728   -3.7191 C   0  0  0  0  0  0  0  0  0  0  0  0
    0.0011    0.3698   -3.8587 C   0  0  0  0  0  0  0  0  0  0  0  0
    0.0002   -0.4582   -2.7008 C   0  0  0  0  0  0  0  0  0  0  0  0
   -0.0011   -1.8549   -2.8908 C   0  0  0  0  0  0  0  0  0  0  0  0
   -0.0013   -2.4008   -4.1461 C   0  0  0  0  0  0  0  0  0  0  0  0
   -0.0003   -1.5820   -5.2832 C   0  0  0  0  0  0  0  0  0  0  0  0
    0.0008   -0.2238   -5.1391 C   0  0  0  0  0  0  0  0  0  0  0  0
   -0.0024   -1.7815    4.5629 H   0  0  0  0  0  0  0  0  0  0  0  0
   -0.0019   -0.5243    6.7015 H   0  0  0  0  0  0  0  0  0  0  0  0
    0.0000    1.9412    6.6693 H   0  0  0  0  0  0  0  0  0  0  0  0
    0.0016    3.1496    4.5225 H   0  0  0  0  0  0  0  0  0  0  0  0
    0.0012    1.8832    2.3933 H   0  0  0  0  0  0  0  0  0  0  0  0
   -0.0017   -1.6719   -0.2438 H   0  0  0  0  0  0  0  0  0  0  0  0
    0.0019    2.0044   -0.3567 H   0  0  0  0  0  0  0  0  0  0  0  0
    0.0035    3.4317   -2.3809 H   0  0  0  0  0  0  0  0  0  0  0  0
    0.0031    2.3798   -4.6134 H   0  0  0  0  0  0  0  0  0  0  0  0
   -0.0018   -2.5154   -2.0385 H   0  0  0  0  0  0  0  0  0  0  0  0
   -0.0022   -3.4742   -4.2656 H   0  0  0  0  0  0  0  0  0  0  0  0
   -0.0006   -2.0305   -6.2654 H   0  0  0  0  0  0  0  0  0  0  0  0
    0.0015    0.4222   -6.0054 H   0  0  0  0  0  0  0  0  0  0  0  0
  1  2  2  0  0  0  0
  2  3  1  0  0  0  0
  3  4  1  0  0  0  0
  4  5  2  0  0  0  0
  5 22  1  0  0  0  0
  6  5  1  0  0  0  0
  6 23  1  0  0  0  0
  7  6  2  0  0  0  0
  8  3  2  0  0  0  0
  8  7  1  0  0  0  0
  9  2  1  0  0  0  0
 10  9  2  0  0  0  0
 11 12  1  0  0  0  0
 11 10  1  0  0  0  0
 12 27  1  0  0  0  0
 13 28  1  0  0  0  0
 13 12  2  0  0  0  0
 14 13  1  0  0  0  0
 15 14  2  0  0  0  0
 15 16  1  0  0  0  0
 16 11  2  0  0  0  0
 17 16  1  0  0  0  0
 17 30  1  0  0  0  0
 18 17  2  0  0  0  0
 19 20  2  0  0  0  0
 19 18  1  0  0  0  0
 20 15  1  0  0  0  0
 21  4  1  0  0  0  0
 24  7  1  0  0  0  0
 25  8  1  0  0  0  0
 26 10  1  0  0  0  0
 29 14  1  0  0  0  0
 31 18  1  0  0  0  0
 32 19  1  0  0  0  0
 33 20  1  0  0  0  0
M  END
$$$$
