Standard file
 OpenBabel12142210053D

 17 17  0  0  0  0  0  0  0  0999 V2000
   -0.0144   -2.4863   -1.8738 S   0  0  0  0  0  0  0  0  0  0  0  0
   -0.0037   -1.0498   -0.8383 C   0  0  0  0  0  0  0  0  0  0  0  0
    0.0068    0.2032   -1.4428 C   0  0  0  0  0  0  0  0  0  0  0  0
    0.0138    1.3413   -0.6693 C   0  0  0  0  0  0  0  0  0  0  0  0
    0.0098    1.2545    0.7249 C   0  0  0  0  0  0  0  0  0  0  0  0
    0.0166    2.4408    1.3941 O   0  0  0  0  0  0  0  0  0  0  0  0
   -0.0019    2.4196    2.8002 C   0  0  0  0  0  0  0  0  0  0  0  0
    0.0000    0.0000    1.3234 C   0  0  0  0  0  0  0  0  0  0  0  0
   -0.0066   -1.1441    0.5429 C   0  0  0  0  0  0  0  0  0  0  0  0
   -0.0157   -3.3749   -0.8818 H   0  0  0  0  0  0  0  0  0  0  0  0
    0.0092    0.2749   -2.5195 H   0  0  0  0  0  0  0  0  0  0  0  0
    0.0222    2.3193   -1.1230 H   0  0  0  0  0  0  0  0  0  0  0  0
   -0.9038    1.9308    3.1834 H   0  0  0  0  0  0  0  0  0  0  0  0
    0.8835    1.9207    3.2077 H   0  0  0  0  0  0  0  0  0  0  0  0
    0.0000    3.4633    3.1102 H   0  0  0  0  0  0  0  0  0  0  0  0
   -0.0024   -0.1077    2.3964 H   0  0  0  0  0  0  0  0  0  0  0  0
   -0.0143   -2.1117    1.0243 H   0  0  0  0  0  0  0  0  0  0  0  0
  1 10  1  0  0  0  0
  1  2  1  0  0  0  0
  2  9  1  0  0  0  0
  3  2  2  0  0  0  0
  3  4  1  0  0  0  0
  4  5  2  0  0  0  0
  5  8  1  0  0  0  0
  5  6  1  0  0  0  0
  6  7  1  0  0  0  0
  7 15  1  0  0  0  0
  7 13  1  0  0  0  0
  7 14  1  0  0  0  0
  8 16  1  0  0  0  0
  9 17  1  0  0  0  0
  9  8  2  0  0  0  0
 11  3  1  0  0  0  0
 12  4  1  0  0  0  0
M  END
$$$$
