Standard file
 OpenBabel12142210053D

 16 16  0  0  0  0  0  0  0  0999 V2000
   -0.0044   -1.9574   -1.0065 S   0  0  0  0  0  0  0  0  0  0  0  0
    0.0081   -0.2982   -0.3746 C   0  0  0  0  0  0  0  0  0  0  0  0
   -0.0013    0.7159   -1.3240 C   0  0  0  0  0  0  0  0  0  0  0  0
   -0.0082    2.0400   -0.9329 C   0  0  0  0  0  0  0  0  0  0  0  0
   -0.0002    2.3542    0.4152 C   0  0  0  0  0  0  0  0  0  0  0  0
    0.0034    1.3400    1.3556 C   0  0  0  0  0  0  0  0  0  0  0  0
    0.0000    0.0000    0.9892 C   0  0  0  0  0  0  0  0  0  0  0  0
   -0.0177   -1.0662    2.0430 C   0  0  0  0  0  0  0  0  0  0  0  0
    0.4079   -2.5624    0.1042 H   0  0  0  0  0  0  0  0  0  0  0  0
   -0.0022    0.4513   -2.3710 H   0  0  0  0  0  0  0  0  0  0  0  0
   -0.0150    2.8203   -1.6786 H   0  0  0  0  0  0  0  0  0  0  0  0
    0.0000    3.3851    0.7353 H   0  0  0  0  0  0  0  0  0  0  0  0
    0.0016    1.5890    2.4074 H   0  0  0  0  0  0  0  0  0  0  0  0
   -0.8494   -1.7533    1.8841 H   0  0  0  0  0  0  0  0  0  0  0  0
    0.9112   -1.6401    2.0344 H   0  0  0  0  0  0  0  0  0  0  0  0
   -0.1260   -0.6191    3.0281 H   0  0  0  0  0  0  0  0  0  0  0  0
  1  2  1  0  0  0  0
  1  9  1  0  0  0  0
  2  7  1  0  0  0  0
  3  4  1  0  0  0  0
  3  2  2  0  0  0  0
  4  5  2  0  0  0  0
  5 12  1  0  0  0  0
  5  6  1  0  0  0  0
  6 13  1  0  0  0  0
  7  6  2  0  0  0  0
  7  8  1  0  0  0  0
  8 16  1  0  0  0  0
 10  3  1  0  0  0  0
 11  4  1  0  0  0  0
 14  8  1  0  0  0  0
 15  8  1  0  0  0  0
M  END
$$$$
