114
Standard file
O         -0.67720322000000    1.94573786000000   -0.41266489000000
P         -0.59215951000000    0.51702638000000   -0.19286387000000
O         -1.98465144000000   -0.23846742000000   -0.23854166000000
O          0.00000100000000    0.00000100000000    1.22236015000000
C          1.35380024000000    0.31982246000000    1.33896927000000
C          1.75168138000000    1.48375595000000    1.98929261000000
C          0.75992056000000    2.38704003000000    2.58756635000000
C          0.83383099000000    3.75156875000000    2.32579470000000
C         -0.11449656000000    4.61973844000000    2.83699984000000
C         -0.09730768000000    6.11468345000000    2.55386087000000
C         -1.38227672000000    6.48492758000000    1.80020461000000
C          1.09642610000000    6.53572248000000    1.69266832000000
C         -0.02474891000000    6.88580229000000    3.87946975000000
C         -1.13933477000000    4.09110916000000    3.61961249000000
C         -1.23570212000000    2.73723816000000    3.89944972000000
C         -2.36643307000000    2.13965975000000    4.72327421000000
C         -3.12623934000000    1.13519940000000    3.84519731000000
C         -3.36326500000000    3.19065602000000    5.21944229000000
C         -1.77827539000000    1.42543069000000    5.94828505000000
C         -0.26448659000000    1.89143600000000    3.37744466000000
C          3.10860734000000    1.78075325000000    1.99155138000000
C          4.04050395000000    0.99648748000000    1.32535371000000
C          3.62429432000000   -0.15093251000000    0.65420688000000
C          4.58457786000000   -0.96539417000000   -0.16963862000000
C          5.82777543000000   -0.16489037000000   -0.53934935000000
C          6.43005376000000    0.42273361000000    0.72996084000000
C          5.47329905000000    1.46145721000000    1.30274350000000
C          2.27212915000000   -0.50613180000000    0.69904962000000
C          1.73246185000000   -1.70555387000000    0.01734861000000
C          0.76935485000000   -1.50572514000000   -0.97356057000000
O          0.37528166000000   -0.20451279000000   -1.25915184000000
C          0.15608811000000   -2.57406191000000   -1.62748499000000
C         -0.94571527000000   -2.33908116000000   -2.57461303000000
C         -0.86218700000000   -1.33199615000000   -3.53052846000000
C         -1.93706036000000   -1.05488184000000   -4.35755872000000
C         -1.91848874000000    0.08654932000000   -5.36166323000000
C         -3.01644836000000    1.08728203000000   -4.97357492000000
C         -0.58243448000000    0.83362729000000   -5.37433045000000
C         -2.17911583000000   -0.46185588000000   -6.77164966000000
C         -3.08629973000000   -1.83257590000000   -4.23172067000000
C         -3.19029329000000   -2.86034705000000   -3.30680795000000
C         -4.44154829000000   -3.71296314000000   -3.15482504000000
C         -4.07622405000000   -5.18623112000000   -3.38448733000000
C         -5.54164965000000   -3.33598442000000   -4.15050656000000
C         -4.99795944000000   -3.52825357000000   -1.73559630000000
C         -2.10492659000000   -3.09600756000000   -2.47142231000000
C          0.56477016000000   -3.86381968000000   -1.29629608000000
C          1.49033393000000   -4.08369270000000   -0.29454911000000
C          2.06183872000000   -3.00808019000000    0.38674107000000
C          2.90315786000000   -3.34722809000000    1.57987641000000
C          3.94224677000000   -4.44472881000000    1.28798914000000
C          3.46844692000000   -5.43737638000000    0.21847485000000
C          1.94214640000000   -5.45337570000000    0.10983664000000
H         -1.93527421000000   -1.19262932000000   -0.16407669000000
H          1.62677750000000    4.10255538000000    1.68735172000000
H         -2.26467343000000    6.29747241000000    2.40580476000000
H         -1.37116652000000    7.53950490000000    1.53131745000000
H         -1.46147815000000    5.89304842000000    0.89120325000000
H          1.06315340000000    7.61099276000000    1.52647888000000
H          2.03728143000000    6.30084695000000    2.18570968000000
H          1.06704642000000    6.04386956000000    0.72376094000000
H          0.00000100000000    7.95695298000000    3.68905643000000
H         -0.88286655000000    6.67409270000000    4.51117572000000
H          0.87578164000000    6.61122871000000    4.42529212000000
H         -1.88509259000000    4.76361015000000    4.00817751000000
H         -3.51579819000000    1.63283642000000    2.95975326000000
H         -2.47663852000000    0.32970657000000    3.51445286000000
H         -3.95821727000000    0.70292762000000    4.39843223000000
H         -3.83446695000000    3.70527304000000    4.38544391000000
H         -2.87606448000000    3.92038353000000    5.86253526000000
H         -4.14602725000000    2.70358693000000    5.79815209000000
H         -2.57544475000000    0.99545870000000    6.55177298000000
H         -1.22181318000000    2.13036634000000    6.56292583000000
H         -1.10467818000000    0.62547916000000    5.65414531000000
H         -0.29304027000000    0.83224080000000    3.57982828000000
H          3.44223106000000    2.67152999000000    2.50405333000000
H          4.07442443000000   -1.32176621000000   -1.06747073000000
H          4.89776840000000   -1.84654731000000    0.39535763000000
H          6.54693486000000   -0.81303299000000   -1.04387020000000
H          5.56047975000000    0.64275366000000   -1.22349796000000
H          7.39629721000000    0.88621015000000    0.52248217000000
H          6.59064018000000   -0.37688601000000    1.45676234000000
H          5.52243476000000    2.36897197000000    0.69232337000000
H          5.77716615000000    1.73954265000000    2.31493497000000
H          0.05491909000000   -0.77485894000000   -3.60474585000000
H         -3.00786723000000    1.93568372000000   -5.65468560000000
H         -2.84482589000000    1.45183872000000   -3.96287861000000
H         -4.00232354000000    0.63134995000000   -5.01062319000000
H         -0.37081242000000    1.26559676000000   -4.39898964000000
H          0.23386914000000    0.17348916000000   -5.66010481000000
H         -0.62807747000000    1.64405461000000   -6.09932168000000
H         -3.15093632000000   -0.94302967000000   -6.84019311000000
H         -1.41719488000000   -1.19179176000000   -7.03812288000000
H         -2.15017298000000    0.34745411000000   -7.49819947000000
H         -3.92223284000000   -1.61747599000000   -4.87477557000000
H         -3.66712770000000   -5.31972392000000   -4.38385607000000
H         -3.33714494000000   -5.52923706000000   -2.66569339000000
H         -4.96085143000000   -5.81217935000000   -3.28707207000000
H         -6.40161739000000   -3.98665759000000   -4.00376066000000
H         -5.20033309000000   -3.45862176000000   -5.17594112000000
H         -5.86941524000000   -2.30988383000000   -4.00133587000000
H         -4.29403220000000   -3.87694052000000   -0.98461974000000
H         -5.92277589000000   -4.08959589000000   -1.61941296000000
H         -5.20494717000000   -2.47678947000000   -1.54757244000000
H         -2.15554646000000   -3.86358967000000   -1.71267382000000
H          0.12704758000000   -4.70174630000000   -1.81902176000000
H          3.38279122000000   -2.46024600000000    1.99123447000000
H          2.21655729000000   -3.72323494000000    2.34624876000000
H          4.15295980000000   -4.97215065000000    2.21998137000000
H          4.87785941000000   -3.99058056000000    0.95846470000000
H          3.86986288000000   -5.14876909000000   -0.75517521000000
H          3.83889991000000   -6.43773096000000    0.44624734000000
H          1.61906274000000   -6.19569455000000   -0.62114616000000
H          1.51095339000000   -5.72079282000000    1.07899252000000
