80
Standard file
O         -2.00591637000000    1.64131216000000    0.93985393000000
P         -0.63920687000000    1.27257209000000    0.63688175000000
O          0.44025897000000    2.38666751000000    0.96100253000000
O          0.00000100000000    0.00000100000000    1.40456208000000
C         -0.65514350000000   -1.17971530000000    1.05640810000000
C         -1.67028672000000   -1.68879655000000    1.85936391000000
C         -2.06951410000000   -1.00651055000000    3.09770763000000
C         -1.11564517000000   -0.55274677000000    4.00336858000000
C         -1.49764158000000    0.11365721000000    5.15462323000000
C         -0.47535611000000    0.63145383000000    6.13140344000000
O          0.82332641000000    0.21152877000000    5.78825489000000
C          1.79981528000000    0.70881727000000    6.66056016000000
C         -2.84785905000000    0.32580516000000    5.40737325000000
C         -3.80067297000000   -0.12657641000000    4.51350085000000
C         -3.41778224000000   -0.79164344000000    3.36359908000000
C         -2.31529067000000   -2.83921027000000    1.41987226000000
C         -2.02671832000000   -3.42767593000000    0.19695749000000
C         -1.03982051000000   -2.87748941000000   -0.61973483000000
C         -0.83516720000000   -3.37663671000000   -2.02443047000000
C         -1.29166681000000   -4.82048953000000   -2.19367059000000
C         -2.72503520000000   -4.95100048000000   -1.69627027000000
C         -2.77193106000000   -4.67576189000000   -0.19771352000000
C         -0.32040902000000   -1.77089261000000   -0.15820948000000
C          0.79105906000000   -1.15714212000000   -0.92045546000000
C          0.68191528000000    0.18625387000000   -1.28164933000000
O         -0.46283949000000    0.87989668000000   -0.91621289000000
C          1.71079880000000    0.85066289000000   -1.94912432000000
C          1.61446960000000    2.28897164000000   -2.24554711000000
C          2.69124637000000    3.12622721000000   -1.96359325000000
C          2.60461999000000    4.48288626000000   -2.21583246000000
C          1.44418629000000    5.01880982000000   -2.74344404000000
C          0.36371718000000    4.19514375000000   -3.03530469000000
C         -0.89761687000000    4.79390892000000   -3.60904803000000
O         -0.65840774000000    5.76817819000000   -4.60190938000000
C         -0.12005039000000    5.23419655000000   -5.78447165000000
C          0.45725325000000    2.83440591000000   -2.79236626000000
C          2.85234492000000    0.12514187000000   -2.28157142000000
C          2.99350292000000   -1.19627873000000   -1.90262623000000
C          1.97497037000000   -1.83969190000000   -1.19925221000000
C          2.28293304000000   -3.21615296000000   -0.69047812000000
C          2.88318288000000   -4.13053305000000   -1.77399103000000
C          3.72182157000000   -3.35704543000000   -2.80066042000000
C          4.20131857000000   -2.01718019000000   -2.23559582000000
H          1.34909675000000    2.08626660000000    0.92686537000000
H         -0.06690927000000   -0.72275098000000    3.82247425000000
H         -0.72553019000000    0.28165808000000    7.14826273000000
H         -0.51979629000000    1.73465258000000    6.14595396000000
H          1.81323586000000    1.80659048000000    6.66305519000000
H          2.75831918000000    0.33639629000000    6.30491375000000
H          1.63312781000000    0.36068365000000    7.68835658000000
H         -3.14939142000000    0.85093800000000    6.30278182000000
H         -4.84811810000000    0.04723653000000    4.71098116000000
H         -4.16125561000000   -1.12061512000000    2.65355380000000
H         -3.08409477000000   -3.27134482000000    2.04394237000000
H         -1.43092264000000   -2.73697805000000   -2.68566946000000
H          0.20310381000000   -3.26079250000000   -2.32946537000000
H         -1.22381728000000   -5.10841558000000   -3.24462976000000
H         -0.64325562000000   -5.48541346000000   -1.61811002000000
H         -3.35521986000000   -4.23147352000000   -2.22278715000000
H         -3.11395878000000   -5.95078844000000   -1.89887965000000
H         -2.31769692000000   -5.51859043000000    0.33518036000000
H         -3.80766707000000   -4.60355616000000    0.14019717000000
H          3.59152355000000    2.71199172000000   -1.53182639000000
H          3.44288964000000    5.12626833000000   -1.99148878000000
H          1.36473350000000    6.07755472000000   -2.94025450000000
H         -1.44243306000000    5.31953393000000   -2.81800932000000
H         -1.54385132000000    3.99601933000000   -4.00519269000000
H          0.00000100000000    6.06748523000000   -6.47403956000000
H         -0.79612417000000    4.49028140000000   -6.22530472000000
H          0.85396090000000    4.76200056000000   -5.60868213000000
H         -0.37431875000000    2.18813916000000   -3.02923787000000
H          3.64371607000000    0.61614623000000   -2.82885976000000
H          3.02427207000000   -3.09618798000000    0.10672959000000
H          1.40442898000000   -3.68067285000000   -0.24473310000000
H          3.49918091000000   -4.88440510000000   -1.28092555000000
H          2.08213782000000   -4.65990641000000   -2.29205617000000
H          3.12012851000000   -3.14951053000000   -3.68827577000000
H          4.57638263000000   -3.95764876000000   -3.11471695000000
H          4.79665960000000   -2.19454280000000   -1.33540514000000
H          4.82965942000000   -1.49972670000000   -2.96151340000000
