90
Standard file
O         -0.45920880000000    2.13332904000000   -0.38233688000000
P          0.10559965000000    0.79299055000000   -0.31875231000000
O          1.68367341000000    0.74045174000000   -0.53654948000000
O          0.00000100000000    0.00000100000000    1.07653219000000
C         -1.12022109000000   -0.77529948000000    1.33596826000000
C         -1.95407188000000   -0.40975497000000    2.41921022000000
C         -1.65553752000000    0.78080321000000    3.23435631000000
C         -1.51653710000000    0.65889039000000    4.61183043000000
C         -1.21932090000000    1.75491422000000    5.40557882000000
C         -1.11560515000000    1.58911260000000    6.89427200000000
C         -1.05406554000000    3.00538844000000    4.79897412000000
O         -0.73962444000000    4.11794681000000    5.55976679000000
C          0.61429262000000    4.19395230000000    6.00069598000000
C          1.56839556000000    4.49618664000000    4.84392147000000
C          0.66503228000000    5.28660274000000    7.06211736000000
C         -1.26256247000000    3.15510056000000    3.42516973000000
C         -1.19977168000000    4.49939936000000    2.76651589000000
C         -1.55324151000000    2.03738007000000    2.65729511000000
C         -3.02880787000000   -1.20804246000000    2.72160042000000
C         -3.36118382000000   -2.32928486000000    1.93824099000000
C         -2.52126823000000   -2.68934343000000    0.85332100000000
C         -2.90467545000000   -3.77141706000000    0.03323677000000
C         -4.03797807000000   -4.48740812000000    0.30340981000000
C         -4.84337411000000   -4.15952630000000    1.40398775000000
C         -4.51477855000000   -3.09845606000000    2.19942781000000
C         -1.34449930000000   -1.92502595000000    0.60883737000000
C         -0.36100671000000   -2.35822817000000   -0.40398426000000
C          0.01749829000000   -1.48439567000000   -1.39515597000000
O         -0.51675402000000   -0.19945158000000   -1.39440593000000
C          0.95403069000000   -1.82723891000000   -2.39516744000000
C          1.37606800000000   -0.83434515000000   -3.39283937000000
C          2.72735012000000   -0.67884623000000   -3.68048921000000
C          3.16564597000000    0.26877005000000   -4.59021347000000
C          4.63039991000000    0.40478064000000   -4.88462915000000
C          2.22628182000000    1.08560019000000   -5.22902258000000
O          2.67182849000000    2.02137693000000   -6.14335413000000
C          2.59441553000000    3.38519616000000   -5.73346551000000
C          2.86868871000000    4.22374047000000   -6.97609400000000
C          3.59663603000000    3.69395342000000   -4.62038853000000
C          0.85909678000000    0.90211596000000   -4.99658675000000
C         -0.17603082000000    1.68700547000000   -5.74732399000000
C          0.45420232000000   -0.04872804000000   -4.07283998000000
C          1.47898868000000   -3.09664263000000   -2.38092713000000
C          1.14826000000000   -4.02228386000000   -1.37352156000000
C          0.23839945000000   -3.64948507000000   -0.34920519000000
C          0.00575653000000   -4.55497429000000    0.70707409000000
C          0.59678326000000   -5.78817807000000    0.71621247000000
C          1.45159141000000   -6.17769142000000   -0.32531240000000
C          1.72803743000000   -5.30870707000000   -1.34226526000000
H          2.02446677000000    1.63290058000000   -0.55415245000000
H         -1.62945323000000   -0.31188110000000    5.07405423000000
H         -0.13090368000000    1.21669096000000    7.17989220000000
H         -1.28824685000000    2.53943115000000    7.39371540000000
H         -1.85532200000000    0.87009211000000    7.24080533000000
H          0.90946976000000    3.23303647000000    6.44742402000000
H          2.59385830000000    4.49578593000000    5.20467700000000
H          1.34638988000000    5.46991033000000    4.41446319000000
H          1.46914599000000    3.73987621000000    4.06816789000000
H          1.67748278000000    5.39304206000000    7.44147242000000
H          0.00000100000000    5.04084600000000    7.88596168000000
H          0.34276682000000    6.23059180000000    6.63048068000000
H         -2.16058558000000    4.72674803000000    2.30754803000000
H         -0.45032923000000    4.49790183000000    1.97683922000000
H         -0.96905301000000    5.27160827000000    3.49400050000000
H         -1.70097386000000    2.15982326000000    1.59618136000000
H         -3.66125577000000   -0.94729440000000    3.55762320000000
H         -2.29775566000000   -4.02288248000000   -0.82307965000000
H         -4.32196530000000   -5.31025442000000   -0.33568835000000
H         -5.72937951000000   -4.74247284000000    1.60760512000000
H         -5.13935335000000   -2.82194077000000    3.03651659000000
H          3.45459943000000   -1.29115123000000   -3.16696886000000
H          5.13718020000000    0.92316059000000   -4.07041390000000
H          5.08596684000000   -0.57751716000000   -4.99146266000000
H          4.77606633000000    0.96662446000000   -5.80268733000000
H          1.58441886000000    3.60204597000000   -5.35739396000000
H          3.86492187000000    4.00677692000000   -7.35264845000000
H          2.14837516000000    3.98578279000000   -7.75425699000000
H          2.79847373000000    5.28105137000000   -6.73745674000000
H          3.40546303000000    3.05926293000000   -3.75741322000000
H          3.49975074000000    4.73326006000000   -4.31771928000000
H          4.61187005000000    3.52017997000000   -4.96830270000000
H         -1.02896356000000    1.05127351000000   -5.97617393000000
H          0.23569498000000    2.07132624000000   -6.67770103000000
H         -0.53777110000000    2.52267087000000   -5.14708047000000
H         -0.60149256000000   -0.19113201000000   -3.89817459000000
H          2.17423767000000   -3.39220718000000   -3.15284305000000
H         -0.63966437000000   -4.26120670000000    1.52016994000000
H          0.40962022000000   -6.47012704000000    1.53234610000000
H          1.89942745000000   -7.16025262000000   -0.30777723000000
H          2.40474555000000   -5.58743707000000   -2.13713238000000
