138
Standard file
O         -1.05309121000000    0.70349213000000   -0.83497783000000
P         -0.02386907000000   -0.10396779000000   -0.19733124000000
O          0.00000100000000    0.00000100000000    1.38974900000000
O         -0.16695609000000   -1.64745930000000   -0.55365153000000
C          0.86431801000000   -2.53022353000000   -0.27239525000000
C          0.63166734000000   -3.52440772000000    0.70443625000000
C         -0.64440529000000   -3.53174233000000    1.45417744000000
C         -1.84051798000000   -3.84177896000000    0.79750798000000
C         -1.86614884000000   -4.25160796000000   -0.65755151000000
C         -2.76182443000000   -3.32431468000000   -1.48090517000000
C         -2.32566899000000   -5.70753593000000   -0.78320400000000
C         -3.02532607000000   -3.83059192000000    1.51588032000000
C         -3.05117704000000   -3.51277834000000    2.86726797000000
C         -4.31556514000000   -3.51234848000000    3.61583375000000
C         -4.60902217000000   -2.50545394000000    4.53106060000000
C         -5.79723887000000   -2.51238786000000    5.23242033000000
C         -6.73904939000000   -3.52510420000000    5.06352429000000
C         -8.03232124000000   -3.48787181000000    5.86190573000000
C         -8.80870713000000   -2.21702589000000    5.48861654000000
C         -7.70050366000000   -3.47330568000000    7.36080897000000
C         -8.93169789000000   -4.69611109000000    5.58688020000000
C         -6.43958638000000   -4.52895387000000    4.15054234000000
C         -5.25469936000000   -4.52150180000000    3.43738842000000
C         -1.85278235000000   -3.21527809000000    3.50278662000000
C         -0.64625083000000   -3.22405860000000    2.82072878000000
C          0.62774385000000   -2.93075051000000    3.58277605000000
C          0.90008868000000   -4.05064335000000    4.59184010000000
C          0.56763692000000   -1.57594367000000    4.29042183000000
C          1.61303696000000   -4.45409256000000    0.93630079000000
C          2.86297938000000   -4.38258232000000    0.29098233000000
C          3.10046397000000   -3.35521534000000   -0.65878450000000
C          4.39110419000000   -3.23999949000000   -1.21654534000000
C          5.37716461000000   -4.13002557000000   -0.89158780000000
C          5.12533077000000   -5.17789468000000    0.00583887000000
C          3.89624784000000   -5.29516378000000    0.59060997000000
C          2.04087473000000   -2.45875780000000   -0.98249083000000
C          2.19664202000000   -1.44911653000000   -2.04767972000000
C          1.95590850000000   -0.12249045000000   -1.76859092000000
O          1.51142617000000    0.23885264000000   -0.50377212000000
C          2.18172216000000    0.90009540000000   -2.71609764000000
C          1.91183621000000    2.31108850000000   -2.36076749000000
C          2.72537212000000    2.96169647000000   -1.42691734000000
C          3.91619132000000    2.27565080000000   -0.79518119000000
C          3.78814129000000    2.24342187000000    0.72873375000000
C          5.21418337000000    2.96715878000000   -1.22171035000000
C          2.46594064000000    4.28648932000000   -1.11449410000000
C          1.42526761000000    4.98243311000000   -1.71574438000000
C          1.18357633000000    6.39605138000000   -1.39591871000000
C          1.26664139000000    6.86577551000000   -0.08805516000000
C          1.04282061000000    8.19628734000000    0.20129305000000
C          0.73310712000000    9.11884292000000   -0.79572940000000
C          0.49956871000000    10.57491587000000   -0.42555563000000
C          0.16029651000000    11.44599967000000   -1.63823662000000
C         -0.67092752000000    10.65910145000000    0.56441093000000
C          1.77224466000000    11.13575107000000    0.22473664000000
C          0.65521291000000    8.64561267000000   -2.09986526000000
C          0.87277708000000    7.31213304000000   -2.39452262000000
C          0.63153460000000    4.31904267000000   -2.64238133000000
C          0.85268899000000    2.99168221000000   -2.97318703000000
C         -0.04607391000000    2.33003597000000   -3.99293995000000
C         -1.51486348000000    2.40671709000000   -3.57320718000000
C          0.15832020000000    2.97099454000000   -5.36927795000000
C          2.65860799000000    0.54899372000000   -3.95362610000000
C          2.84260843000000   -0.79908906000000   -4.31799371000000
C          2.58682838000000   -1.82064348000000   -3.36660288000000
C          2.68456496000000   -3.16596681000000   -3.77966940000000
C          3.06678409000000   -3.48149614000000   -5.05415241000000
C          3.37068390000000   -2.47145040000000   -5.97850484000000
C          3.25313115000000   -1.15867731000000   -5.61893252000000
H         -0.67306933000000    0.62122734000000    1.66417330000000
H         -0.85267729000000   -4.18839909000000   -1.06378965000000
H         -2.42465805000000   -2.29499003000000   -1.38582471000000
H         -3.79610177000000   -3.38234807000000   -1.15074251000000
H         -2.72163683000000   -3.60607902000000   -2.53124487000000
H         -1.68582866000000   -6.36005854000000   -0.19218848000000
H         -2.27886650000000   -6.02638858000000   -1.82232913000000
H         -3.34917536000000   -5.82398087000000   -0.43556887000000
H         -3.95514118000000   -4.05939885000000    1.01777173000000
H         -3.90635384000000   -1.69735968000000    4.67705652000000
H         -5.98938990000000   -1.70599059000000    5.92474444000000
H         -8.23525779000000   -1.32250324000000    5.71571318000000
H         -9.74477515000000   -2.17251521000000    6.04155980000000
H         -9.03539126000000   -2.21451296000000    4.42435493000000
H         -7.12342694000000   -4.35680337000000    7.62648221000000
H         -7.12200009000000   -2.59452032000000    7.63153145000000
H         -8.61704286000000   -3.47016963000000    7.94724453000000
H        -9.83406207000000   -4.62120270000000    6.19063898000000
H        -8.42900113000000   -5.62476665000000    5.84764080000000
H         -9.23047632000000   -4.73291174000000    4.54184842000000
H         -7.12928303000000   -5.33988691000000    3.98058156000000
H         -5.04613706000000   -5.32607018000000    2.74660335000000
H         -1.86736581000000   -2.99949605000000    4.56056736000000
H          1.46402879000000   -2.89426871000000    2.87921442000000
H          1.84904936000000   -3.88015679000000    5.09583705000000
H          0.94339485000000   -5.01592104000000    4.09234548000000
H          0.11469724000000   -4.09339103000000    5.34260458000000
H          0.40899646000000   -0.78505227000000    3.56283403000000
H          1.50703131000000   -1.38769360000000    4.80648313000000
H         -0.23446965000000   -1.54474621000000    5.02337295000000
H          1.43770559000000   -5.24560415000000    1.64995567000000
H          4.59945735000000   -2.43007183000000   -1.89844298000000
H          6.36120660000000   -4.02676664000000   -1.32418995000000
H          5.91262352000000   -5.87848974000000    0.24150631000000
H          3.69691494000000   -6.08180068000000    1.30397188000000
H          3.96091944000000    1.24156752000000   -1.14866710000000
H          2.86583441000000    1.74240110000000    1.01257227000000
H          4.62545544000000    1.70035321000000    1.16280198000000
H          3.78046614000000    3.24871312000000    1.14286679000000
H          5.24303224000000    3.99516738000000   -0.86930358000000
H          5.29920486000000    2.97473835000000   -2.30648609000000
H          6.07266216000000    2.43932873000000   -0.81128461000000
H          3.10168347000000    4.80469435000000   -0.41225851000000
H          1.48839623000000    6.17486724000000    0.71274456000000
H          1.11125948000000    8.51645270000000    1.23065868000000
H         -0.74957079000000    11.10181639000000   -2.12459798000000
H         0.97339200000000    11.44587466000000   -2.36060023000000
H         0.00000100000000    12.47245627000000   -1.31392336000000
H         -0.86791655000000    11.69706056000000    0.82504550000000
H         -1.57008076000000    10.23775404000000    0.11937848000000
H         -0.45669773000000    10.11369130000000    1.47926581000000
H         1.63061107000000    12.18263824000000    0.48553194000000
H          2.02746506000000    10.59105925000000    1.12952761000000
H         2.61050094000000    11.06186578000000   -0.46523929000000
H          0.42452712000000    9.31412783000000   -2.91358599000000
H          0.82146191000000    6.98170885000000   -3.42215711000000
H         -0.18778612000000    4.85215497000000   -3.09967711000000
H          0.21811368000000    1.27116510000000   -4.06505388000000
H         -2.13091465000000    1.86572339000000   -4.28862010000000
H         -1.64102360000000    1.95372814000000   -2.59432684000000
H         -1.86345737000000    3.43549120000000   -3.53230632000000
H          1.20260387000000    2.91606239000000   -5.67013509000000
H         -0.13614914000000    4.01767284000000   -5.35427892000000
H         -0.44319106000000    2.45620289000000   -6.11539552000000
H          2.87137262000000    1.32038759000000   -4.67897773000000
H          2.44031623000000   -3.95045899000000   -3.07994962000000
H          3.13202726000000   -4.51586815000000   -5.35748587000000
H          3.68199944000000   -2.73941337000000   -6.97726210000000
H          3.45915988000000   -0.37109054000000   -6.32925823000000
