84
Standard file
O          1.80168255000000   -1.65994654000000    0.85569536000000
P          0.76576660000000   -0.79670297000000    0.30774646000000
O          1.25803805000000    0.31960416000000   -0.70957449000000
O         -0.38032656000000   -1.49621610000000   -0.59172386000000
C         -1.27236363000000   -2.28417188000000    0.12842322000000
C         -1.26006721000000   -3.66719337000000   -0.01705610000000
C         -0.37256777000000   -4.32507946000000   -1.04283979000000
C          1.07671101000000   -4.16821828000000   -0.68370678000000
C          1.55765222000000   -4.70770126000000    0.50253304000000
C          2.88313100000000   -4.53358175000000    0.86294283000000
C          3.38057045000000   -5.14523808000000    2.14328514000000
F          4.44568114000000   -4.51950753000000    2.65266552000000
F          2.44730388000000   -5.17317714000000    3.10464118000000
F          3.75576157000000   -6.43145041000000    1.96082675000000
C          3.75662060000000   -3.81865723000000    0.05748607000000
C          3.26827027000000   -3.28342556000000   -1.12164317000000
C          4.13371234000000   -2.41573534000000   -1.98657325000000
F          3.73241507000000   -1.11963562000000   -1.93098043000000
F          5.42354371000000   -2.42240106000000   -1.64961399000000
F          4.07112049000000   -2.75186642000000   -3.28532852000000
C          1.94325439000000   -3.45665837000000   -1.49722147000000
C         -2.10987151000000   -4.40618327000000    0.78887514000000
C         -2.90793503000000   -3.81368667000000    1.76029546000000
C         -2.94238361000000   -2.42576078000000    1.86628527000000
C         -3.69264366000000   -1.76207122000000    2.98793896000000
C         -4.83625305000000   -2.62833550000000    3.50206314000000
C         -4.28898439000000   -4.00052595000000    3.87162911000000
C         -3.76870407000000   -4.69956431000000    2.62077193000000
C         -2.17426407000000   -1.65755979000000    0.98394166000000
C         -2.31232765000000   -0.18496221000000    0.89030543000000
C         -1.20749741000000    0.61703387000000    1.14878682000000
O          0.00000100000000    0.00000100000000    1.45434469000000
C         -1.29568553000000    2.00341515000000    1.10958959000000
C         -0.10639658000000    2.87958962000000    1.41524588000000
C          0.08733257000000    3.89313324000000    0.32760106000000
C         -0.05987682000000    5.25258548000000    0.56365396000000
C          0.09100343000000    6.16558221000000   -0.47316963000000
C         -0.08290741000000    7.62688277000000   -0.15986991000000
F         -1.27767554000000    7.87525483000000    0.40833359000000
F          0.84067212000000    8.06690907000000    0.71353600000000
F          0.00000100000000    8.41621603000000   -1.23525731000000
C          0.39076132000000    5.74710717000000   -1.75939820000000
C          0.53380512000000    4.38538763000000   -1.98806090000000
C          0.87343646000000    3.87058481000000   -3.36087257000000
F          0.79098333000000    4.80741868000000   -4.31318826000000
F          0.06079119000000    2.86876572000000   -3.73850169000000
F          2.12405453000000    3.37800764000000   -3.41496237000000
C          0.38506695000000    3.46547545000000   -0.96215611000000
C         -2.51629564000000    2.56144659000000    0.76579168000000
C         -3.61015504000000    1.78357560000000    0.40800959000000
C         -3.51093318000000    0.39521672000000    0.45301909000000
C         -4.64271560000000   -0.48177690000000   -0.01282741000000
C         -5.62127648000000    0.27935534000000   -0.90041137000000
C         -6.05412678000000    1.55073533000000   -0.18348364000000
C         -4.85655367000000    2.48485116000000   -0.06131132000000
H          2.10723540000000    0.09591027000000   -1.09272856000000
H         -0.55711445000000   -3.87113817000000   -2.01820769000000
H         -0.62310909000000   -5.38652338000000   -1.09812172000000
H          0.88800884000000   -5.24287156000000    1.15935032000000
H          4.78181644000000   -3.66333232000000    0.35447836000000
H          1.58724049000000   -3.01516768000000   -2.41688276000000
H         -2.13049892000000   -5.48151378000000    0.68246851000000
H         -2.97650766000000   -1.60598161000000    3.80259306000000
H         -4.04663848000000   -0.77495719000000    2.69407315000000
H         -5.29705378000000   -2.15432083000000    4.37025047000000
H         -5.60059580000000   -2.73576460000000    2.72897665000000
H         -5.06405697000000   -4.61180783000000    4.33688076000000
H         -3.47732160000000   -3.88140611000000    4.59164615000000
H         -4.61898358000000   -5.02882450000000    2.01352411000000
H         -3.20684734000000   -5.59399142000000    2.89737404000000
H          0.78146800000000    2.24983423000000    1.49783811000000
H         -0.26133282000000    3.38135386000000    2.37292990000000
H         -0.29352216000000    5.61243579000000    1.55506640000000
H          0.50556678000000    6.45937129000000   -2.56141906000000
H          0.50090963000000    2.41087637000000   -1.16188948000000
H         -2.60819597000000    3.63778780000000    0.73664432000000
H         -4.23122749000000   -1.34155204000000   -0.54618576000000
H         -5.19000768000000   -0.87217636000000    0.84878438000000
H         -5.14211802000000    0.53973900000000   -1.84588447000000
H         -6.48312734000000   -0.35269244000000   -1.12001782000000
H         -6.43114099000000    1.29591971000000    0.80921085000000
H         -6.85591622000000    2.04986254000000   -0.72951901000000
H         -4.64465029000000    2.92713127000000   -1.03998083000000
H         -5.08411369000000    3.30827719000000    0.61944154000000
