90
Standard file
O          0.40083167000000   -0.44130723000000   -1.32238942000000
P          0.92381637000000   -0.58443669000000    0.01875405000000
O          0.00000100000000    0.00000100000000    1.16433819000000
O          2.36948456000000    0.10667857000000    0.17425091000000
C          3.16665046000000   -0.22943714000000    1.25654295000000
C          3.34874088000000    0.72661845000000    2.28393683000000
C          2.68779930000000    2.03877528000000    2.21176450000000
C          2.71659146000000    2.80426391000000    1.04897214000000
C          2.09668294000000    4.03675850000000    1.00739835000000
C          1.43894715000000    4.54226009000000    2.12717810000000
C          0.79916453000000    5.86311138000000    2.08847574000000
C          0.88377999000000    6.72273711000000    3.18147392000000
C          0.28902433000000    7.97452787000000    3.13818404000000
C          0.39906958000000    8.85769030000000    4.35179344000000
F         1.65950595000000    8.92705247000000    4.81271378000000
F         0.00000100000000    10.11392010000000    4.13266173000000
F         -0.34310683000000    8.39151512000000    5.37418182000000
C         -0.40504029000000    8.40100452000000    2.01612076000000
C         -0.49093857000000    7.53950349000000    0.93144023000000
C         -1.20736459000000    7.97972066000000   -0.31763789000000
F         -2.08792543000000    8.96284530000000   -0.09652963000000
F         -1.88185525000000    6.97928484000000   -0.90103796000000
F         -0.34527683000000    8.44247616000000   -1.24343619000000
C          0.10308243000000    6.28745445000000    0.95794145000000
C          1.41000865000000    3.77481101000000    3.29023987000000
C          2.02260985000000    2.53946265000000    3.32952352000000
C          4.13868462000000    0.39263202000000    3.35755828000000
C          4.72730489000000   -0.88024869000000    3.47501559000000
C          4.51557064000000   -1.84353988000000    2.45381362000000
C          5.03441335000000   -3.14327585000000    2.63302400000000
C          5.76759021000000   -3.45595995000000    3.74411296000000
C          6.01803197000000   -2.48955828000000    4.72996948000000
C          5.50240571000000   -1.23116703000000    4.60108769000000
C          3.74981478000000   -1.47723052000000    1.31243094000000
C          3.51119545000000   -2.42007682000000    0.20004235000000
C          2.20877451000000   -2.71067241000000   -0.13514563000000
O          1.18913070000000   -2.08236338000000    0.57453128000000
C          1.87749743000000   -3.56330351000000   -1.20821262000000
C          0.46856595000000   -3.77424177000000   -1.56716552000000
C         -0.47210357000000   -4.13989973000000   -0.60899113000000
C         -1.79124074000000   -4.33624128000000   -0.96320099000000
C         -2.20661404000000   -4.15355387000000   -2.28057539000000
C         -3.60936779000000   -4.36408964000000   -2.65738270000000
C         -4.24110237000000   -3.51097245000000   -3.56156506000000
C         -5.56116205000000   -3.72728063000000   -3.92148954000000
C         -6.24041749000000   -2.78011447000000   -4.87428786000000
F         -6.89252551000000   -1.79896462000000   -4.22374732000000
F         -5.38046650000000   -2.17599826000000   -5.70517911000000
F         -7.15258309000000   -3.39090317000000   -5.64397071000000
C         -6.28890579000000   -4.78518147000000   -3.39227489000000
C         -5.65739731000000   -5.62913591000000   -2.49233493000000
C         -6.38669208000000   -6.79881078000000   -1.88941707000000
F         -5.78842634000000   -7.96761517000000   -2.18372952000000
F         -6.41880963000000   -6.72977549000000   -0.54597474000000
F         -7.65473210000000   -6.90551482000000   -2.29700879000000
C         -4.33532244000000   -5.42664373000000   -2.12468611000000
C         -1.26473050000000   -3.77635853000000   -3.23605176000000
C          0.05756108000000   -3.59988345000000   -2.88556258000000
C          2.90039154000000   -4.14715755000000   -1.91471389000000
C          4.25016179000000   -3.88343323000000   -1.61272907000000
C          4.57183749000000   -2.98982596000000   -0.55661665000000
C          5.92604218000000   -2.66242957000000   -0.33555571000000
C          6.91485296000000   -3.23237871000000   -1.08862481000000
C          6.60085181000000   -4.15206467000000   -2.10031934000000
C          5.29658797000000   -4.46349325000000   -2.36141918000000
H          0.21906910000000   -0.28228678000000    2.05289728000000
H          3.23748109000000    2.43605287000000    0.17939226000000
H          2.14841655000000    4.62723505000000    0.10533223000000
H          1.43429655000000    6.42677511000000    4.06176714000000
H         -0.86748169000000    9.37513714000000    1.98730287000000
H          0.00454828000000    5.63072820000000    0.10687071000000
H          0.88068645000000    4.13675804000000    4.15898175000000
H          1.97675588000000    1.94699475000000    4.23200717000000
H          4.31237862000000    1.12042065000000    4.13660037000000
H          4.83849784000000   -3.89462576000000    1.88378803000000
H          6.15718003000000   -4.45488785000000    3.86994721000000
H          6.60895344000000   -2.75225441000000    5.59443931000000
H          5.67116668000000   -0.48471152000000    5.36343821000000
H         -0.16279227000000   -4.28297888000000    0.41534176000000
H         -2.51337434000000   -4.60606434000000   -0.20692086000000
H         -3.70316934000000   -2.67013926000000   -3.97205557000000
H         -7.31603807000000   -4.94741922000000   -3.67929594000000
H         -3.86513278000000   -6.11170225000000   -1.43534669000000
H         -1.56789792000000   -3.64455137000000   -4.26383321000000
H          0.77845527000000   -3.29911090000000   -3.63014816000000
H          2.66889655000000   -4.81581276000000   -2.73079966000000
H          6.17587253000000   -1.94790755000000    0.43358795000000
H          7.94748125000000   -2.97305155000000   -0.90920020000000
H          7.39594488000000   -4.59914754000000   -2.67780130000000
H          5.04213190000000   -5.15320456000000   -3.15274345000000
