9
Standard file
C          0.29040885000000    0.45838306000000   -1.66148888000000
C         -0.38518229000000   -0.45880052000000   -0.66166437000000
S          0.00000100000000    0.00000100000000    1.06835634000000
H          1.37370207000000    0.38674294000000   -1.58048987000000
H          0.00000100000000    0.17973177000000   -2.67284425000000
H         -0.00147644000000    1.49153221000000   -1.48692732000000
H         -0.08981490000000   -1.49827239000000   -0.80342751000000
H         -1.46976169000000   -0.38410285000000   -0.72901857000000
H          1.31666924000000   -0.17062758000000    0.96762159000000
