
     RDKit          3D

142152  0  0  0  0  0  0  0  0999 V2000
    0.5303   -1.2170   -1.0865 O   0  0  0  0  0  0  0  0  0  0  0  0
    0.0412   -0.2533   -0.0514 P   0  0  0  0  0  5  0  0  0  0  0  0
   -0.6661   -1.0628    1.1449 O   0  0  0  0  0  0  0  0  0  0  0  0
   -1.0959    0.7685   -0.5527 O   0  0  0  0  0  0  0  0  0  0  0  0
   -1.5083    1.7954    0.2701 C   0  0  0  0  0  0  0  0  0  0  0  0
   -2.8699    1.8110    0.6773 C   0  0  0  0  0  0  0  0  0  0  0  0
   -3.8847    0.7874    0.2823 C   0  0  0  0  0  0  0  0  0  0  0  0
   -4.9160    0.4035    1.1676 C   0  0  0  0  0  0  0  0  0  0  0  0
   -5.9144   -0.5235    0.8159 C   0  0  0  0  0  0  0  0  0  0  0  0
   -7.0052   -0.8470    1.7547 C   0  0  0  0  0  0  0  0  0  0  0  0
   -6.8581   -1.8871    2.7042 C   0  0  0  0  0  0  0  0  0  0  0  0
   -5.5972   -2.7081    2.7785 C   0  0  0  0  0  0  0  0  0  0  0  0
   -7.9034   -2.1666    3.6026 C   0  0  0  0  0  0  0  0  0  0  0  0
   -9.0917   -1.4352    3.5820 C   0  0  0  0  0  0  0  0  0  0  0  0
  -10.2063   -1.7693    4.5303 C   0  0  0  0  0  0  0  0  0  0  0  0
   -9.2496   -0.4278    2.6251 C   0  0  0  0  0  0  0  0  0  0  0  0
   -8.2201   -0.1174    1.7199 C   0  0  0  0  0  0  0  0  0  0  0  0
   -8.4603    0.9690    0.7026 C   0  0  0  0  0  0  0  0  0  0  0  0
   -5.8421   -1.1420   -0.4352 C   0  0  0  0  0  0  0  0  0  0  0  0
   -4.8147   -0.8268   -1.3332 C   0  0  0  0  0  0  0  0  0  0  0  0
   -4.6734   -1.5608   -2.6014 C   0  0  0  0  0  0  0  0  0  0  0  0
   -3.8410   -2.7084   -2.6616 C   0  0  0  0  0  0  0  0  0  0  0  0
   -3.0959   -3.2056   -1.4493 C   0  0  0  0  0  0  0  0  0  0  0  0
   -3.6895   -3.3991   -3.8730 C   0  0  0  0  0  0  0  0  0  0  0  0
   -4.3586   -2.9855   -5.0272 C   0  0  0  0  0  0  0  0  0  0  0  0
   -4.1484   -3.7178   -6.3184 C   0  0  0  0  0  0  0  0  0  0  0  0
   -5.1707   -1.8507   -4.9702 C   0  0  0  0  0  0  0  0  0  0  0  0
   -5.3443   -1.1379   -3.7711 C   0  0  0  0  0  0  0  0  0  0  0  0
   -6.2281    0.0836   -3.7749 C   0  0  0  0  0  0  0  0  0  0  0  0
   -3.8820    0.1665   -0.9786 C   0  0  0  0  0  0  0  0  0  0  0  0
   -3.2530    2.8667    1.5176 C   0  0  0  0  0  0  0  0  0  0  0  0
   -2.3299    3.7988    1.9931 C   0  0  0  0  0  0  0  0  0  0  0  0
   -0.9925    3.7678    1.5511 C   0  0  0  0  0  0  0  0  0  0  0  0
   -0.0615    4.7538    2.2406 C   0  0  0  0  0  0  0  0  0  0  0  0
   -0.2911    4.7323    3.7562 C   0  0  0  0  0  0  0  0  0  0  0  0
   -1.7585    4.9226    4.1527 C   0  0  0  0  0  0  0  0  0  0  0  0
   -2.7383    4.8629    2.9826 C   0  0  0  0  0  0  0  0  0  0  0  0
   -0.5570    2.8094    0.5997 C   0  0  0  0  0  0  0  0  0  0  0  0
    0.7575    2.8517    0.0047 C   0  0  0  0  0  0  0  0  0  0  0  0
    1.6450    1.7428    0.1020 C   0  0  0  0  0  0  0  0  0  0  0  0
    1.1734    0.5982    0.7045 O   0  0  0  0  0  0  0  0  0  0  0  0
    2.9953    1.7678   -0.3171 C   0  0  0  0  0  0  0  0  0  0  0  0
    3.9389    0.6246   -0.1822 C   0  0  0  0  0  0  0  0  0  0  0  0
    4.8737    0.3353   -1.1985 C   0  0  0  0  0  0  0  0  0  0  0  0
    5.7920   -0.7266   -1.0999 C   0  0  0  0  0  0  0  0  0  0  0  0
    6.7607   -0.9896   -2.1814 C   0  0  0  0  0  0  0  0  0  0  0  0
    8.0715   -0.4571   -2.1253 C   0  0  0  0  0  0  0  0  0  0  0  0
    8.5387    0.3721   -0.9567 C   0  0  0  0  0  0  0  0  0  0  0  0
    8.9751   -0.7070   -3.1754 C   0  0  0  0  0  0  0  0  0  0  0  0
    8.6006   -1.4648   -4.2880 C   0  0  0  0  0  0  0  0  0  0  0  0
    9.5860   -1.7386   -5.3856 C   0  0  0  0  0  0  0  0  0  0  0  0
    7.3159   -2.0128   -4.3306 C   0  0  0  0  0  0  0  0  0  0  0  0
    6.3905   -1.7803   -3.2973 C   0  0  0  0  0  0  0  0  0  0  0  0
    5.0203   -2.4010   -3.4020 C   0  0  0  0  0  0  0  0  0  0  0  0
    5.7489   -1.5476    0.0303 C   0  0  0  0  0  0  0  0  0  0  0  0
    4.8207   -1.3123    1.0522 C   0  0  0  0  0  0  0  0  0  0  0  0
    4.7127   -2.2402    2.1932 C   0  0  0  0  0  0  0  0  0  0  0  0
    5.4234   -2.0034    3.3930 C   0  0  0  0  0  0  0  0  0  0  0  0
    6.3200   -0.8038    3.5524 C   0  0  0  0  0  0  0  0  0  0  0  0
    5.2931   -2.8995    4.4684 C   0  0  0  0  0  0  0  0  0  0  0  0
    4.4684   -4.0249    4.3760 C   0  0  0  0  0  0  0  0  0  0  0  0
    4.3678   -4.9911    5.5201 C   0  0  0  0  0  0  0  0  0  0  0  0
    3.7820   -4.2683    3.1849 C   0  0  0  0  0  0  0  0  0  0  0  0
    3.8889   -3.3903    2.0951 C   0  0  0  0  0  0  0  0  0  0  0  0
    3.1090   -3.6957    0.8382 C   0  0  0  0  0  0  0  0  0  0  0  0
    3.9524   -0.2093    0.9467 C   0  0  0  0  0  0  0  0  0  0  0  0
    3.4421    2.9618   -0.9025 C   0  0  0  0  0  0  0  0  0  0  0  0
    2.5932    4.0555   -1.1229 C   0  0  0  0  0  0  0  0  0  0  0  0
    1.2460    3.9932   -0.7051 C   0  0  0  0  0  0  0  0  0  0  0  0
    0.3095    5.1388   -1.0698 C   0  0  0  0  0  0  0  0  0  0  0  0
    0.8324    6.0471   -2.1828 C   0  0  0  0  0  0  0  0  0  0  0  0
    2.2617    6.4604   -1.8689 C   0  0  0  0  0  0  0  0  0  0  0  0
    3.1588    5.2319   -1.8867 C   0  0  0  0  0  0  0  0  0  0  0  0
   -0.8414   -1.9776    0.8584 H   0  0  0  0  0  0  0  0  0  0  0  0
   -4.9617    0.8321    2.1674 H   0  0  0  0  0  0  0  0  0  0  0  0
   -4.7538   -2.0846    3.0892 H   0  0  0  0  0  0  0  0  0  0  0  0
   -5.3761   -3.1689    1.8107 H   0  0  0  0  0  0  0  0  0  0  0  0
   -5.6942   -3.5209    3.5054 H   0  0  0  0  0  0  0  0  0  0  0  0
   -7.7849   -2.9689    4.3278 H   0  0  0  0  0  0  0  0  0  0  0  0
   -9.8108   -2.1221    5.4868 H   0  0  0  0  0  0  0  0  0  0  0  0
  -10.8194   -0.8860    4.7408 H   0  0  0  0  0  0  0  0  0  0  0  0
  -10.8449   -2.5480    4.1014 H   0  0  0  0  0  0  0  0  0  0  0  0
  -10.1887    0.1241    2.5851 H   0  0  0  0  0  0  0  0  0  0  0  0
   -9.4038    1.4913    0.8912 H   0  0  0  0  0  0  0  0  0  0  0  0
   -7.6657    1.7199    0.7367 H   0  0  0  0  0  0  0  0  0  0  0  0
   -8.5180    0.5408   -0.3039 H   0  0  0  0  0  0  0  0  0  0  0  0
   -6.5834   -1.8903   -0.7092 H   0  0  0  0  0  0  0  0  0  0  0  0
   -2.5415   -4.1262   -1.6650 H   0  0  0  0  0  0  0  0  0  0  0  0
   -2.3698   -2.4581   -1.1144 H   0  0  0  0  0  0  0  0  0  0  0  0
   -3.7922   -3.4347   -0.6334 H   0  0  0  0  0  0  0  0  0  0  0  0
   -3.0353   -4.2676   -3.9214 H   0  0  0  0  0  0  0  0  0  0  0  0
   -4.0882   -4.7979   -6.1465 H   0  0  0  0  0  0  0  0  0  0  0  0
   -4.9803   -3.5463   -7.0123 H   0  0  0  0  0  0  0  0  0  0  0  0
   -3.2192   -3.3802   -6.7931 H   0  0  0  0  0  0  0  0  0  0  0  0
   -5.6743   -1.5137   -5.8754 H   0  0  0  0  0  0  0  0  0  0  0  0
   -7.0364   -0.0227   -3.0449 H   0  0  0  0  0  0  0  0  0  0  0  0
   -6.6946    0.2368   -4.7534 H   0  0  0  0  0  0  0  0  0  0  0  0
   -5.6384    0.9794   -3.5482 H   0  0  0  0  0  0  0  0  0  0  0  0
   -3.1308    0.4383   -1.7194 H   0  0  0  0  0  0  0  0  0  0  0  0
   -4.2876    2.9577    1.8407 H   0  0  0  0  0  0  0  0  0  0  0  0
    0.9926    4.5316    2.0518 H   0  0  0  0  0  0  0  0  0  0  0  0
   -0.2623    5.7634    1.8705 H   0  0  0  0  0  0  0  0  0  0  0  0
    0.0599    3.7710    4.1542 H   0  0  0  0  0  0  0  0  0  0  0  0
    0.3251    5.5027    4.2344 H   0  0  0  0  0  0  0  0  0  0  0  0
   -1.8801    5.8760    4.6790 H   0  0  0  0  0  0  0  0  0  0  0  0
   -2.0200    4.1471    4.8843 H   0  0  0  0  0  0  0  0  0  0  0  0
   -2.7658    5.8280    2.4594 H   0  0  0  0  0  0  0  0  0  0  0  0
   -3.7488    4.6828    3.3664 H   0  0  0  0  0  0  0  0  0  0  0  0
    4.8911    0.9352   -2.1060 H   0  0  0  0  0  0  0  0  0  0  0  0
    8.4958   -0.2091   -0.0300 H   0  0  0  0  0  0  0  0  0  0  0  0
    7.9250    1.2718   -0.8589 H   0  0  0  0  0  0  0  0  0  0  0  0
    9.5761    0.6964   -1.0848 H   0  0  0  0  0  0  0  0  0  0  0  0
    9.9834   -0.2991   -3.1275 H   0  0  0  0  0  0  0  0  0  0  0  0
    9.0735   -1.9717   -6.3241 H   0  0  0  0  0  0  0  0  0  0  0  0
   10.2145   -0.8590   -5.5678 H   0  0  0  0  0  0  0  0  0  0  0  0
   10.2273   -2.5843   -5.1147 H   0  0  0  0  0  0  0  0  0  0  0  0
    7.0274   -2.6256   -5.1841 H   0  0  0  0  0  0  0  0  0  0  0  0
    4.2490   -1.6264   -3.4303 H   0  0  0  0  0  0  0  0  0  0  0  0
    4.9179   -2.9929   -4.3185 H   0  0  0  0  0  0  0  0  0  0  0  0
    4.8401   -3.0752   -2.5583 H   0  0  0  0  0  0  0  0  0  0  0  0
    6.4279   -2.3956    0.1049 H   0  0  0  0  0  0  0  0  0  0  0  0
    6.8114   -0.7934    4.5317 H   0  0  0  0  0  0  0  0  0  0  0  0
    7.1057   -0.8104    2.7921 H   0  0  0  0  0  0  0  0  0  0  0  0
    5.7392    0.1227    3.4721 H   0  0  0  0  0  0  0  0  0  0  0  0
    5.8435   -2.7172    5.3897 H   0  0  0  0  0  0  0  0  0  0  0  0
    3.3912   -5.4839    5.5300 H   0  0  0  0  0  0  0  0  0  0  0  0
    4.4786   -4.4725    6.4801 H   0  0  0  0  0  0  0  0  0  0  0  0
    5.1480   -5.7526    5.4368 H   0  0  0  0  0  0  0  0  0  0  0  0
    3.1518   -5.1535    3.1041 H   0  0  0  0  0  0  0  0  0  0  0  0
    3.7892   -3.8547   -0.0050 H   0  0  0  0  0  0  0  0  0  0  0  0
    2.4180   -2.8803    0.6078 H   0  0  0  0  0  0  0  0  0  0  0  0
    2.5117   -4.6074    0.9480 H   0  0  0  0  0  0  0  0  0  0  0  0
    3.2658   -0.0231    1.7719 H   0  0  0  0  0  0  0  0  0  0  0  0
    4.4802    3.0494   -1.2256 H   0  0  0  0  0  0  0  0  0  0  0  0
   -0.6650    4.7450   -1.3844 H   0  0  0  0  0  0  0  0  0  0  0  0
    0.1544    5.7694   -0.1894 H   0  0  0  0  0  0  0  0  0  0  0  0
    0.7892    5.5332   -3.1493 H   0  0  0  0  0  0  0  0  0  0  0  0
    0.1924    6.9334   -2.2600 H   0  0  0  0  0  0  0  0  0  0  0  0
    2.3017    6.9500   -0.8893 H   0  0  0  0  0  0  0  0  0  0  0  0
    2.6163    7.1886   -2.6068 H   0  0  0  0  0  0  0  0  0  0  0  0
    3.3018    4.9146   -2.9267 H   0  0  0  0  0  0  0  0  0  0  0  0
    4.1408    5.5033   -1.4787 H   0  0  0  0  0  0  0  0  0  0  0  0
  1  2  2  0
  2  3  1  0
  2  4  1  0
  4  5  1  0
  5  6  2  0
  6  7  1  0
  7  8  2  0
  8  9  1  0
  9 10  1  0
 10 11  2  0
 11 12  1  0
 11 13  1  0
 13 14  2  0
 14 15  1  0
 14 16  1  0
 16 17  2  0
 17 18  1  0
  9 19  2  0
 19 20  1  0
 20 21  1  0
 21 22  2  0
 22 23  1  0
 22 24  1  0
 24 25  2  0
 25 26  1  0
 25 27  1  0
 27 28  2  0
 28 29  1  0
 20 30  2  0
  6 31  1  0
 31 32  2  0
 32 33  1  0
 33 34  1  0
 34 35  1  0
 35 36  1  0
 36 37  1  0
 33 38  2  0
 38 39  1  0
 39 40  2  0
 40 41  1  0
 40 42  1  0
 42 43  1  0
 43 44  2  0
 44 45  1  0
 45 46  1  0
 46 47  2  0
 47 48  1  0
 47 49  1  0
 49 50  2  0
 50 51  1  0
 50 52  1  0
 52 53  2  0
 53 54  1  0
 45 55  2  0
 55 56  1  0
 56 57  1  0
 57 58  2  0
 58 59  1  0
 58 60  1  0
 60 61  2  0
 61 62  1  0
 61 63  1  0
 63 64  2  0
 64 65  1  0
 56 66  2  0
 42 67  2  0
 67 68  1  0
 68 69  2  0
 69 70  1  0
 70 71  1  0
 71 72  1  0
 72 73  1  0
 41  2  1  0
 38  5  1  0
 30  7  1  0
 17 10  1  0
 28 21  1  0
 37 32  1  0
 69 39  1  0
 66 43  1  0
 53 46  1  0
 64 57  1  0
 73 68  1  0
  3 74  1  0
  8 75  1  0
 12 76  1  0
 12 77  1  0
 12 78  1  0
 13 79  1  0
 15 80  1  0
 15 81  1  0
 15 82  1  0
 16 83  1  0
 18 84  1  0
 18 85  1  0
 18 86  1  0
 19 87  1  0
 23 88  1  0
 23 89  1  0
 23 90  1  0
 24 91  1  0
 26 92  1  0
 26 93  1  0
 26 94  1  0
 27 95  1  0
 29 96  1  0
 29 97  1  0
 29 98  1  0
 30 99  1  0
 31100  1  0
 34101  1  0
 34102  1  0
 35103  1  0
 35104  1  0
 36105  1  0
 36106  1  0
 37107  1  0
 37108  1  0
 44109  1  0
 48110  1  0
 48111  1  0
 48112  1  0
 49113  1  0
 51114  1  0
 51115  1  0
 51116  1  0
 52117  1  0
 54118  1  0
 54119  1  0
 54120  1  0
 55121  1  0
 59122  1  0
 59123  1  0
 59124  1  0
 60125  1  0
 62126  1  0
 62127  1  0
 62128  1  0
 63129  1  0
 65130  1  0
 65131  1  0
 65132  1  0
 66133  1  0
 67134  1  0
 70135  1  0
 70136  1  0
 71137  1  0
 71138  1  0
 72139  1  0
 72140  1  0
 73141  1  0
 73142  1  0
M  END
