
     RDKit          3D

 90100  0  0  0  0  0  0  0  0999 V2000
    0.2513    1.5010    1.4757 O   0  0  0  0  0  0  0  0  0  0  0  0
    0.1820    0.5752    0.3023 P   0  0  0  0  0  5  0  0  0  0  0  0
    0.1126    1.3816   -1.0881 O   0  0  0  0  0  0  0  0  0  0  0  0
    1.4239   -0.4277    0.0931 O   0  0  0  0  0  0  0  0  0  0  0  0
    1.4576   -1.5596    0.8792 C   0  0  0  0  0  0  0  0  0  0  0  0
    2.4446   -1.6156    1.8796 C   0  0  0  0  0  0  0  0  0  0  0  0
    3.4043   -0.5198    2.1191 C   0  0  0  0  0  0  0  0  0  0  0  0
    4.2365   -0.0364    1.0925 C   0  0  0  0  0  0  0  0  0  0  0  0
    5.1410    1.0215    1.2995 C   0  0  0  0  0  0  0  0  0  0  0  0
    5.9732    1.5335    0.1978 C   0  0  0  0  0  0  0  0  0  0  0  0
    5.9882    2.9049   -0.1156 C   0  0  0  0  0  0  0  0  0  0  0  0
    6.7699    3.4157   -1.1669 C   0  0  0  0  0  0  0  0  0  0  0  0
    6.7798    4.7864   -1.4742 C   0  0  0  0  0  0  0  0  0  0  0  0
    7.5620    5.2783   -2.5198 C   0  0  0  0  0  0  0  0  0  0  0  0
    8.3427    4.4063   -3.2734 C   0  0  0  0  0  0  0  0  0  0  0  0
    8.3424    3.0416   -2.9822 C   0  0  0  0  0  0  0  0  0  0  0  0
    7.5614    2.5320   -1.9320 C   0  0  0  0  0  0  0  0  0  0  0  0
    7.5483    1.1637   -1.6251 C   0  0  0  0  0  0  0  0  0  0  0  0
    6.7663    0.6732   -0.5748 C   0  0  0  0  0  0  0  0  0  0  0  0
    5.2138    1.5849    2.5824 C   0  0  0  0  0  0  0  0  0  0  0  0
    4.4050    1.1174    3.6176 C   0  0  0  0  0  0  0  0  0  0  0  0
    3.5066    0.0769    3.3851 C   0  0  0  0  0  0  0  0  0  0  0  0
    2.4870   -2.7646    2.6739 C   0  0  0  0  0  0  0  0  0  0  0  0
    1.5648   -3.8048    2.5182 C   0  0  0  0  0  0  0  0  0  0  0  0
    0.5712   -3.7313    1.5071 C   0  0  0  0  0  0  0  0  0  0  0  0
   -0.3832   -4.7809    1.4878 C   0  0  0  0  0  0  0  0  0  0  0  0
   -0.3211   -5.8698    2.3608 C   0  0  0  0  0  0  0  0  0  0  0  0
    0.6907   -5.9387    3.3045 C   0  0  0  0  0  0  0  0  0  0  0  0
    1.6227   -4.9081    3.3869 C   0  0  0  0  0  0  0  0  0  0  0  0
    0.5372   -2.6064    0.6073 C   0  0  0  0  0  0  0  0  0  0  0  0
   -0.3592   -2.5078   -0.5281 C   0  0  0  0  0  0  0  0  0  0  0  0
   -1.1921   -1.3704   -0.6805 C   0  0  0  0  0  0  0  0  0  0  0  0
   -1.1291   -0.3586    0.2541 O   0  0  0  0  0  0  0  0  0  0  0  0
   -2.1466   -1.2206   -1.7040 C   0  0  0  0  0  0  0  0  0  0  0  0
   -2.9863   -0.0149   -1.8271 C   0  0  0  0  0  0  0  0  0  0  0  0
   -2.9086    0.7970   -2.9689 C   0  0  0  0  0  0  0  0  0  0  0  0
   -3.6839    1.9504   -3.0796 C   0  0  0  0  0  0  0  0  0  0  0  0
   -4.5479    2.3124   -2.0457 C   0  0  0  0  0  0  0  0  0  0  0  0
   -4.6541    1.5287   -0.8868 C   0  0  0  0  0  0  0  0  0  0  0  0
   -5.5545    1.9161    0.2112 C   0  0  0  0  0  0  0  0  0  0  0  0
   -5.0744    2.0571    1.5213 C   0  0  0  0  0  0  0  0  0  0  0  0
   -5.9270    2.4298    2.5650 C   0  0  0  0  0  0  0  0  0  0  0  0
   -7.2875    2.6709    2.3271 C   0  0  0  0  0  0  0  0  0  0  0  0
   -8.1569    3.0470    3.3638 C   0  0  0  0  0  0  0  0  0  0  0  0
   -9.5094    3.2814    3.1110 C   0  0  0  0  0  0  0  0  0  0  0  0
  -10.0093    3.1430    1.8193 C   0  0  0  0  0  0  0  0  0  0  0  0
   -9.1575    2.7689    0.7785 C   0  0  0  0  0  0  0  0  0  0  0  0
   -7.7931    2.5308    1.0159 C   0  0  0  0  0  0  0  0  0  0  0  0
   -6.9197    2.1570   -0.0221 C   0  0  0  0  0  0  0  0  0  0  0  0
   -3.8690    0.3651   -0.8003 C   0  0  0  0  0  0  0  0  0  0  0  0
   -2.2667   -2.2554   -2.6332 C   0  0  0  0  0  0  0  0  0  0  0  0
   -1.4437   -3.3849   -2.5832 C   0  0  0  0  0  0  0  0  0  0  0  0
   -0.4701   -3.5146   -1.5565 C   0  0  0  0  0  0  0  0  0  0  0  0
    0.3888   -4.6398   -1.6505 C   0  0  0  0  0  0  0  0  0  0  0  0
    0.2530   -5.6116   -2.6461 C   0  0  0  0  0  0  0  0  0  0  0  0
   -0.7414   -5.4847   -3.6016 C   0  0  0  0  0  0  0  0  0  0  0  0
   -1.5789   -4.3738   -3.5731 C   0  0  0  0  0  0  0  0  0  0  0  0
   -0.4949    2.1390   -1.0086 H   0  0  0  0  0  0  0  0  0  0  0  0
    4.1620   -0.4801    0.0998 H   0  0  0  0  0  0  0  0  0  0  0  0
    5.3665    3.5867    0.4635 H   0  0  0  0  0  0  0  0  0  0  0  0
    6.1745    5.4831   -0.8970 H   0  0  0  0  0  0  0  0  0  0  0  0
    7.5594    6.3417   -2.7461 H   0  0  0  0  0  0  0  0  0  0  0  0
    8.9515    4.7878   -4.0882 H   0  0  0  0  0  0  0  0  0  0  0  0
    8.9560    2.3751   -3.5841 H   0  0  0  0  0  0  0  0  0  0  0  0
    8.1499    0.4633   -2.2005 H   0  0  0  0  0  0  0  0  0  0  0  0
    6.7873   -0.3938   -0.3575 H   0  0  0  0  0  0  0  0  0  0  0  0
    5.9083    2.3978    2.7847 H   0  0  0  0  0  0  0  0  0  0  0  0
    4.4660    1.5717    4.6036 H   0  0  0  0  0  0  0  0  0  0  0  0
    2.8657   -0.2548    4.1999 H   0  0  0  0  0  0  0  0  0  0  0  0
    3.2504   -2.8391    3.4478 H   0  0  0  0  0  0  0  0  0  0  0  0
   -1.2142   -4.7594    0.7847 H   0  0  0  0  0  0  0  0  0  0  0  0
   -1.0696   -6.6560    2.3017 H   0  0  0  0  0  0  0  0  0  0  0  0
    0.7468   -6.7816    3.9875 H   0  0  0  0  0  0  0  0  0  0  0  0
    2.3948   -4.9686    4.1521 H   0  0  0  0  0  0  0  0  0  0  0  0
   -2.2262    0.5390   -3.7774 H   0  0  0  0  0  0  0  0  0  0  0  0
   -3.6104    2.5716   -3.9688 H   0  0  0  0  0  0  0  0  0  0  0  0
   -5.1337    3.2246   -2.1436 H   0  0  0  0  0  0  0  0  0  0  0  0
   -4.0213    1.8878    1.7404 H   0  0  0  0  0  0  0  0  0  0  0  0
   -5.5149    2.5318    3.5667 H   0  0  0  0  0  0  0  0  0  0  0  0
   -7.7845    3.1592    4.3795 H   0  0  0  0  0  0  0  0  0  0  0  0
  -10.1710    3.5722    3.9229 H   0  0  0  0  0  0  0  0  0  0  0  0
  -11.0627    3.3241    1.6209 H   0  0  0  0  0  0  0  0  0  0  0  0
   -9.5672    2.6669   -0.2244 H   0  0  0  0  0  0  0  0  0  0  0  0
   -7.3129    2.0381   -1.0306 H   0  0  0  0  0  0  0  0  0  0  0  0
   -3.9474   -0.2627    0.0874 H   0  0  0  0  0  0  0  0  0  0  0  0
   -3.0087   -2.1658   -3.4261 H   0  0  0  0  0  0  0  0  0  0  0  0
    1.2026   -4.7734   -0.9400 H   0  0  0  0  0  0  0  0  0  0  0  0
    0.9304   -6.4616   -2.6696 H   0  0  0  0  0  0  0  0  0  0  0  0
   -0.8541   -6.2355   -4.3787 H   0  0  0  0  0  0  0  0  0  0  0  0
   -2.3366   -4.2782   -4.3485 H   0  0  0  0  0  0  0  0  0  0  0  0
  1  2  2  0
  2  3  1  0
  2  4  1  0
  4  5  1  0
  5  6  2  0
  6  7  1  0
  7  8  2  0
  8  9  1  0
  9 10  1  0
 10 11  2  0
 11 12  1  0
 12 13  2  0
 13 14  1  0
 14 15  2  0
 15 16  1  0
 12 17  1  0
 17 18  1  0
 18 19  2  0
  9 20  2  0
 20 21  1  0
 21 22  2  0
  6 23  1  0
 23 24  2  0
 24 25  1  0
 25 26  1  0
 26 27  2  0
 27 28  1  0
 28 29  2  0
 25 30  2  0
 30 31  1  0
 31 32  2  0
 32 33  1  0
 32 34  1  0
 34 35  1  0
 35 36  2  0
 36 37  1  0
 37 38  2  0
 38 39  1  0
 39 40  1  0
 40 41  2  0
 41 42  1  0
 42 43  2  0
 43 44  1  0
 44 45  2  0
 45 46  1  0
 46 47  2  0
 43 48  1  0
 48 49  2  0
 39 50  2  0
 34 51  2  0
 51 52  1  0
 52 53  2  0
 53 54  1  0
 54 55  2  0
 55 56  1  0
 56 57  2  0
 33  2  1  0
 30  5  1  0
 22  7  1  0
 19 10  1  0
 17 16  2  0
 29 24  1  0
 53 31  1  0
 50 35  1  0
 49 40  1  0
 48 47  1  0
 57 52  1  0
  3 58  1  0
  8 59  1  0
 11 60  1  0
 13 61  1  0
 14 62  1  0
 15 63  1  0
 16 64  1  0
 18 65  1  0
 19 66  1  0
 20 67  1  0
 21 68  1  0
 22 69  1  0
 23 70  1  0
 26 71  1  0
 27 72  1  0
 28 73  1  0
 29 74  1  0
 36 75  1  0
 37 76  1  0
 38 77  1  0
 41 78  1  0
 42 79  1  0
 44 80  1  0
 45 81  1  0
 46 82  1  0
 47 83  1  0
 49 84  1  0
 50 85  1  0
 51 86  1  0
 54 87  1  0
 55 88  1  0
 56 89  1  0
 57 90  1  0
M  END
