
     RDKit          3D

 76 82  0  0  0  0  0  0  0  0999 V2000
   -0.6108    2.5519    1.3206 O   0  0  0  0  0  0  0  0  0  0  0  0
   -0.0815    1.7091    0.2036 P   0  0  0  0  0  5  0  0  0  0  0  0
    0.5074    2.5729   -1.0194 O   0  0  0  0  0  0  0  0  0  0  0  0
    1.1445    0.7479    0.6085 O   0  0  0  0  0  0  0  0  0  0  0  0
    1.5337   -0.2900   -0.2094 C   0  0  0  0  0  0  0  0  0  0  0  0
    2.8567   -0.2395   -0.6932 C   0  0  0  0  0  0  0  0  0  0  0  0
    3.7739    0.8813   -0.3872 C   0  0  0  0  0  0  0  0  0  0  0  0
    4.3451    1.0153    0.9045 C   0  0  0  0  0  0  0  0  0  0  0  0
    4.0553    0.0377    2.0163 C   0  0  0  0  0  0  0  0  0  0  0  0
    5.1883    2.1035    1.1901 C   0  0  0  0  0  0  0  0  0  0  0  0
    5.5043    3.0503    0.2148 C   0  0  0  0  0  0  0  0  0  0  0  0
    6.4389    4.1810    0.5272 C   0  0  0  0  0  0  0  0  0  0  0  0
    4.9853    2.8925   -1.0712 C   0  0  0  0  0  0  0  0  0  0  0  0
    4.1150    1.8326   -1.3834 C   0  0  0  0  0  0  0  0  0  0  0  0
    3.6336    1.7245   -2.8084 C   0  0  0  0  0  0  0  0  0  0  0  0
    3.3099   -1.3003   -1.4800 C   0  0  0  0  0  0  0  0  0  0  0  0
    2.4708   -2.3601   -1.8271 C   0  0  0  0  0  0  0  0  0  0  0  0
    1.1392   -2.4052   -1.3359 C   0  0  0  0  0  0  0  0  0  0  0  0
    0.3330   -3.4677   -1.8210 C   0  0  0  0  0  0  0  0  0  0  0  0
    0.8243   -4.4580   -2.6764 C   0  0  0  0  0  0  0  0  0  0  0  0
    2.1434   -4.4132   -3.0963 C   0  0  0  0  0  0  0  0  0  0  0  0
    2.9589   -3.3659   -2.6786 C   0  0  0  0  0  0  0  0  0  0  0  0
    0.6586   -1.3840   -0.4362 C   0  0  0  0  0  0  0  0  0  0  0  0
   -0.6303   -1.4544    0.2236 C   0  0  0  0  0  0  0  0  0  0  0  0
   -1.5446   -0.3802    0.1124 C   0  0  0  0  0  0  0  0  0  0  0  0
   -1.1527    0.7647   -0.5426 O   0  0  0  0  0  0  0  0  0  0  0  0
   -2.8723   -0.4335    0.5719 C   0  0  0  0  0  0  0  0  0  0  0  0
   -3.8234    0.6786    0.3703 C   0  0  0  0  0  0  0  0  0  0  0  0
   -4.0961    1.5942    1.4160 C   0  0  0  0  0  0  0  0  0  0  0  0
   -3.4730    1.4611    2.7830 C   0  0  0  0  0  0  0  0  0  0  0  0
   -5.0144    2.6381    1.2093 C   0  0  0  0  0  0  0  0  0  0  0  0
   -5.6485    2.8129   -0.0226 C   0  0  0  0  0  0  0  0  0  0  0  0
   -6.6364    3.9248   -0.2149 C   0  0  0  0  0  0  0  0  0  0  0  0
   -5.3896    1.9044   -1.0508 C   0  0  0  0  0  0  0  0  0  0  0  0
   -4.4917    0.8384   -0.8703 C   0  0  0  0  0  0  0  0  0  0  0  0
   -4.2534   -0.1018   -2.0245 C   0  0  0  0  0  0  0  0  0  0  0  0
   -3.2920   -1.5890    1.2328 C   0  0  0  0  0  0  0  0  0  0  0  0
   -2.4162   -2.6514    1.4672 C   0  0  0  0  0  0  0  0  0  0  0  0
   -1.0797   -2.5922    0.9892 C   0  0  0  0  0  0  0  0  0  0  0  0
   -0.2374   -3.6744    1.3525 C   0  0  0  0  0  0  0  0  0  0  0  0
   -0.6974   -4.7745    2.0815 C   0  0  0  0  0  0  0  0  0  0  0  0
   -2.0195   -4.8253    2.4920 C   0  0  0  0  0  0  0  0  0  0  0  0
   -2.8710   -3.7661    2.1919 C   0  0  0  0  0  0  0  0  0  0  0  0
    0.8377    2.0061   -1.7343 H   0  0  0  0  0  0  0  0  0  0  0  0
    3.0829    0.2528    2.4685 H   0  0  0  0  0  0  0  0  0  0  0  0
    4.8149    0.0996    2.8033 H   0  0  0  0  0  0  0  0  0  0  0  0
    4.0712   -0.9943    1.6520 H   0  0  0  0  0  0  0  0  0  0  0  0
    5.6068    2.2105    2.1897 H   0  0  0  0  0  0  0  0  0  0  0  0
    7.4735    3.8715    0.3494 H   0  0  0  0  0  0  0  0  0  0  0  0
    6.2188    5.0544   -0.0959 H   0  0  0  0  0  0  0  0  0  0  0  0
    6.3369    4.4944    1.5716 H   0  0  0  0  0  0  0  0  0  0  0  0
    5.2568    3.6105   -1.8438 H   0  0  0  0  0  0  0  0  0  0  0  0
    2.6047    1.3601   -2.8656 H   0  0  0  0  0  0  0  0  0  0  0  0
    4.2852    1.0484   -3.3708 H   0  0  0  0  0  0  0  0  0  0  0  0
    3.6437    2.7028   -3.3016 H   0  0  0  0  0  0  0  0  0  0  0  0
    4.3366   -1.2790   -1.8456 H   0  0  0  0  0  0  0  0  0  0  0  0
   -0.7174   -3.5364   -1.5425 H   0  0  0  0  0  0  0  0  0  0  0  0
    0.1693   -5.2583   -3.0117 H   0  0  0  0  0  0  0  0  0  0  0  0
    2.5343   -5.1804   -3.7591 H   0  0  0  0  0  0  0  0  0  0  0  0
    3.9862   -3.3348   -3.0378 H   0  0  0  0  0  0  0  0  0  0  0  0
   -3.4782    2.4200    3.3126 H   0  0  0  0  0  0  0  0  0  0  0  0
   -4.0365    0.7356    3.3781 H   0  0  0  0  0  0  0  0  0  0  0  0
   -2.4288    1.1418    2.7268 H   0  0  0  0  0  0  0  0  0  0  0  0
   -5.2294    3.3302    2.0220 H   0  0  0  0  0  0  0  0  0  0  0  0
   -7.6267    3.6089    0.1275 H   0  0  0  0  0  0  0  0  0  0  0  0
   -6.3335    4.8154    0.3460 H   0  0  0  0  0  0  0  0  0  0  0  0
   -6.7038    4.2130   -1.2693 H   0  0  0  0  0  0  0  0  0  0  0  0
   -5.8950    2.0266   -2.0072 H   0  0  0  0  0  0  0  0  0  0  0  0
   -3.2472    0.0407   -2.4302 H   0  0  0  0  0  0  0  0  0  0  0  0
   -4.9669    0.0739   -2.8369 H   0  0  0  0  0  0  0  0  0  0  0  0
   -4.3807   -1.1428   -1.7110 H   0  0  0  0  0  0  0  0  0  0  0  0
   -4.3195   -1.6402    1.5925 H   0  0  0  0  0  0  0  0  0  0  0  0
    0.8163   -3.6699    1.0788 H   0  0  0  0  0  0  0  0  0  0  0  0
   -0.0154   -5.5839    2.3294 H   0  0  0  0  0  0  0  0  0  0  0  0
   -2.3853   -5.6764    3.0599 H   0  0  0  0  0  0  0  0  0  0  0  0
   -3.9000   -3.8118    2.5446 H   0  0  0  0  0  0  0  0  0  0  0  0
  1  2  2  0
  2  3  1  0
  2  4  1  0
  4  5  1  0
  5  6  2  0
  6  7  1  0
  7  8  2  0
  8  9  1  0
  8 10  1  0
 10 11  2  0
 11 12  1  0
 11 13  1  0
 13 14  2  0
 14 15  1  0
  6 16  1  0
 16 17  2  0
 17 18  1  0
 18 19  1  0
 19 20  2  0
 20 21  1  0
 21 22  2  0
 18 23  2  0
 23 24  1  0
 24 25  2  0
 25 26  1  0
 25 27  1  0
 27 28  1  0
 28 29  2  0
 29 30  1  0
 29 31  1  0
 31 32  2  0
 32 33  1  0
 32 34  1  0
 34 35  2  0
 35 36  1  0
 27 37  2  0
 37 38  1  0
 38 39  2  0
 39 40  1  0
 40 41  2  0
 41 42  1  0
 42 43  2  0
 26  2  1  0
 23  5  1  0
 14  7  1  0
 22 17  1  0
 39 24  1  0
 35 28  1  0
 43 38  1  0
  3 44  1  0
  9 45  1  0
  9 46  1  0
  9 47  1  0
 10 48  1  0
 12 49  1  0
 12 50  1  0
 12 51  1  0
 13 52  1  0
 15 53  1  0
 15 54  1  0
 15 55  1  0
 16 56  1  0
 19 57  1  0
 20 58  1  0
 21 59  1  0
 22 60  1  0
 30 61  1  0
 30 62  1  0
 30 63  1  0
 31 64  1  0
 33 65  1  0
 33 66  1  0
 33 67  1  0
 34 68  1  0
 36 69  1  0
 36 70  1  0
 36 71  1  0
 37 72  1  0
 40 73  1  0
 41 74  1  0
 42 75  1  0
 43 76  1  0
M  END
