
     RDKit          3D

122132  0  0  0  0  0  0  0  0999 V2000
   -0.3940   -1.8485   -0.2195 O   0  0  0  0  0  0  0  0  0  0  0  0
   -0.0191   -0.4021   -0.1284 P   0  0  0  0  0  5  0  0  0  0  0  0
    0.3390    0.1735   -1.5881 O   0  0  0  0  0  0  0  0  0  0  0  0
    1.2949   -0.0943    0.7506 O   0  0  0  0  0  0  0  0  0  0  0  0
    1.5903    1.1961    1.1191 C   0  0  0  0  0  0  0  0  0  0  0  0
    2.8196    1.7453    0.6910 C   0  0  0  0  0  0  0  0  0  0  0  0
    3.8623    1.0031   -0.0731 C   0  0  0  0  0  0  0  0  0  0  0  0
    4.6469    1.6506   -1.0538 C   0  0  0  0  0  0  0  0  0  0  0  0
    5.7399    1.0318   -1.7034 C   0  0  0  0  0  0  0  0  0  0  0  0
    6.5701    1.7749   -2.6722 C   0  0  0  0  0  0  0  0  0  0  0  0
    6.8893    1.2265   -3.9283 C   0  0  0  0  0  0  0  0  0  0  0  0
    7.6662    1.9264   -4.8678 C   0  0  0  0  0  0  0  0  0  0  0  0
    8.0061    1.3134   -6.2071 C   0  0  0  0  0  0  0  0  0  0  0  0
    7.9380    2.2113   -7.2281 F   0  0  0  0  0  0  0  0  0  0  0  0
    7.1884    0.2828   -6.5554 F   0  0  0  0  0  0  0  0  0  0  0  0
    9.2744    0.8124   -6.2319 F   0  0  0  0  0  0  0  0  0  0  0  0
    8.1484    3.2024   -4.5350 C   0  0  0  0  0  0  0  0  0  0  0  0
    7.8589    3.7756   -3.2887 C   0  0  0  0  0  0  0  0  0  0  0  0
    8.3512    5.1581   -2.9333 C   0  0  0  0  0  0  0  0  0  0  0  0
    9.2782    5.6484   -3.8038 F   0  0  0  0  0  0  0  0  0  0  0  0
    7.3416    6.0710   -2.9014 F   0  0  0  0  0  0  0  0  0  0  0  0
    8.9375    5.2040   -1.7036 F   0  0  0  0  0  0  0  0  0  0  0  0
    7.0713    3.0537   -2.3714 C   0  0  0  0  0  0  0  0  0  0  0  0
    5.9997   -0.3093   -1.3968 C   0  0  0  0  0  0  0  0  0  0  0  0
    5.2067   -1.0187   -0.4782 C   0  0  0  0  0  0  0  0  0  0  0  0
    5.4500   -2.4451   -0.2313 C   0  0  0  0  0  0  0  0  0  0  0  0
    6.6219   -2.8816    0.4074 C   0  0  0  0  0  0  0  0  0  0  0  0
    6.8617   -4.2464    0.6323 C   0  0  0  0  0  0  0  0  0  0  0  0
    8.1201   -4.6821    1.3461 C   0  0  0  0  0  0  0  0  0  0  0  0
    8.0408   -4.5084    2.6909 F   0  0  0  0  0  0  0  0  0  0  0  0
    9.2204   -3.9884    0.9395 F   0  0  0  0  0  0  0  0  0  0  0  0
    8.4156   -5.9976    1.1500 F   0  0  0  0  0  0  0  0  0  0  0  0
    5.9028   -5.1862    0.2137 C   0  0  0  0  0  0  0  0  0  0  0  0
    4.7293   -4.7755   -0.4354 C   0  0  0  0  0  0  0  0  0  0  0  0
    3.7156   -5.7978   -0.8925 C   0  0  0  0  0  0  0  0  0  0  0  0
    2.7215   -5.2783   -1.6657 F   0  0  0  0  0  0  0  0  0  0  0  0
    3.0968   -6.4136    0.1564 F   0  0  0  0  0  0  0  0  0  0  0  0
    4.2804   -6.7945   -1.6286 F   0  0  0  0  0  0  0  0  0  0  0  0
    4.5097   -3.4037   -0.6394 C   0  0  0  0  0  0  0  0  0  0  0  0
    4.1641   -0.3454    0.1847 C   0  0  0  0  0  0  0  0  0  0  0  0
    3.0636    3.0838    1.0418 C   0  0  0  0  0  0  0  0  0  0  0  0
    2.1384    3.8639    1.7374 C   0  0  0  0  0  0  0  0  0  0  0  0
    0.9402    3.2761    2.2153 C   0  0  0  0  0  0  0  0  0  0  0  0
    0.0348    4.1439    2.8837 C   0  0  0  0  0  0  0  0  0  0  0  0
    0.2744    5.5045    3.0304 C   0  0  0  0  0  0  0  0  0  0  0  0
    1.4549    6.0497    2.5503 C   0  0  0  0  0  0  0  0  0  0  0  0
    2.3865    5.2304    1.9191 C   0  0  0  0  0  0  0  0  0  0  0  0
    0.6807    1.8857    1.9654 C   0  0  0  0  0  0  0  0  0  0  0  0
   -0.4515    1.2033    2.5474 C   0  0  0  0  0  0  0  0  0  0  0  0
   -1.4558    0.6456    1.7134 C   0  0  0  0  0  0  0  0  0  0  0  0
   -1.1944    0.5877    0.3621 O   0  0  0  0  0  0  0  0  0  0  0  0
   -2.7016    0.1867    2.1858 C   0  0  0  0  0  0  0  0  0  0  0  0
   -3.8396   -0.2290    1.3120 C   0  0  0  0  0  0  0  0  0  0  0  0
   -4.7510   -1.2195    1.7228 C   0  0  0  0  0  0  0  0  0  0  0  0
   -5.9042   -1.5463    0.9863 C   0  0  0  0  0  0  0  0  0  0  0  0
   -6.8765   -2.5241    1.5034 C   0  0  0  0  0  0  0  0  0  0  0  0
   -8.2186   -2.1635    1.7113 C   0  0  0  0  0  0  0  0  0  0  0  0
   -9.1499   -3.0672    2.2539 C   0  0  0  0  0  0  0  0  0  0  0  0
  -10.5783   -2.6314    2.4791 C   0  0  0  0  0  0  0  0  0  0  0  0
  -11.2253   -2.3584    1.3133 F   0  0  0  0  0  0  0  0  0  0  0  0
  -10.6662   -1.5031    3.2318 F   0  0  0  0  0  0  0  0  0  0  0  0
  -11.3360   -3.5661    3.1171 F   0  0  0  0  0  0  0  0  0  0  0  0
   -8.7253   -4.3674    2.5703 C   0  0  0  0  0  0  0  0  0  0  0  0
   -7.3974   -4.7653    2.3536 C   0  0  0  0  0  0  0  0  0  0  0  0
   -6.9439   -6.1622    2.7009 C   0  0  0  0  0  0  0  0  0  0  0  0
   -5.9353   -6.6109    1.9012 F   0  0  0  0  0  0  0  0  0  0  0  0
   -6.4813   -6.2442    3.9758 F   0  0  0  0  0  0  0  0  0  0  0  0
   -7.9371   -7.0895    2.5978 F   0  0  0  0  0  0  0  0  0  0  0  0
   -6.4837   -3.8306    1.8392 C   0  0  0  0  0  0  0  0  0  0  0  0
   -6.1084   -0.8956   -0.2402 C   0  0  0  0  0  0  0  0  0  0  0  0
   -5.2049    0.0617   -0.7315 C   0  0  0  0  0  0  0  0  0  0  0  0
   -5.3848    0.6794   -2.0638 C   0  0  0  0  0  0  0  0  0  0  0  0
   -5.1298    2.0465   -2.2810 C   0  0  0  0  0  0  0  0  0  0  0  0
   -5.2354    2.6277   -3.5563 C   0  0  0  0  0  0  0  0  0  0  0  0
   -4.9139    4.0939   -3.7349 C   0  0  0  0  0  0  0  0  0  0  0  0
   -5.2227    4.5710   -4.9698 F   0  0  0  0  0  0  0  0  0  0  0  0
   -3.5906    4.3548   -3.5503 F   0  0  0  0  0  0  0  0  0  0  0  0
   -5.5829    4.8827   -2.8486 F   0  0  0  0  0  0  0  0  0  0  0  0
   -5.6077    1.8249   -4.6424 C   0  0  0  0  0  0  0  0  0  0  0  0
   -5.8688    0.4555   -4.4616 C   0  0  0  0  0  0  0  0  0  0  0  0
   -6.2807   -0.4103   -5.6295 C   0  0  0  0  0  0  0  0  0  0  0  0
   -5.8668   -1.7005   -5.5087 F   0  0  0  0  0  0  0  0  0  0  0  0
   -7.6339   -0.4596   -5.7742 F   0  0  0  0  0  0  0  0  0  0  0  0
   -5.7864    0.0303   -6.8190 F   0  0  0  0  0  0  0  0  0  0  0  0
   -5.7628   -0.0950   -3.1745 C   0  0  0  0  0  0  0  0  0  0  0  0
   -4.0964    0.3930    0.0761 C   0  0  0  0  0  0  0  0  0  0  0  0
   -2.8609    0.1701    3.5805 C   0  0  0  0  0  0  0  0  0  0  0  0
   -1.8449    0.5482    4.4649 C   0  0  0  0  0  0  0  0  0  0  0  0
   -0.6334    1.0753    3.9611 C   0  0  0  0  0  0  0  0  0  0  0  0
    0.3652    1.4086    4.9153 C   0  0  0  0  0  0  0  0  0  0  0  0
    0.1783    1.2214    6.2802 C   0  0  0  0  0  0  0  0  0  0  0  0
   -1.0284    0.7180    6.7470 C   0  0  0  0  0  0  0  0  0  0  0  0
   -2.0348    0.3863    5.8451 C   0  0  0  0  0  0  0  0  0  0  0  0
   -0.0864   -0.3747   -2.2719 H   0  0  0  0  0  0  0  0  0  0  0  0
    4.4142    2.6823   -1.3197 H   0  0  0  0  0  0  0  0  0  0  0  0
    6.5092    0.2366   -4.1966 H   0  0  0  0  0  0  0  0  0  0  0  0
    8.7539    3.7497   -5.2589 H   0  0  0  0  0  0  0  0  0  0  0  0
    6.8556    3.4999   -1.4007 H   0  0  0  0  0  0  0  0  0  0  0  0
    6.8324   -0.8208   -1.8806 H   0  0  0  0  0  0  0  0  0  0  0  0
    7.3592   -2.1482    0.7385 H   0  0  0  0  0  0  0  0  0  0  0  0
    6.0733   -6.2487    0.3855 H   0  0  0  0  0  0  0  0  0  0  0  0
    3.5971   -3.0782   -1.1351 H   0  0  0  0  0  0  0  0  0  0  0  0
    3.5974   -0.8911    0.9387 H   0  0  0  0  0  0  0  0  0  0  0  0
    4.0066    3.5500    0.7476 H   0  0  0  0  0  0  0  0  0  0  0  0
   -0.9153    3.7649    3.2541 H   0  0  0  0  0  0  0  0  0  0  0  0
   -0.4655    6.1400    3.5102 H   0  0  0  0  0  0  0  0  0  0  0  0
    1.6450    7.1144    2.6500 H   0  0  0  0  0  0  0  0  0  0  0  0
    3.2998    5.6869    1.5390 H   0  0  0  0  0  0  0  0  0  0  0  0
   -4.5896   -1.7440    2.6638 H   0  0  0  0  0  0  0  0  0  0  0  0
   -8.5429   -1.1459    1.4673 H   0  0  0  0  0  0  0  0  0  0  0  0
   -9.4395   -5.0832    2.9835 H   0  0  0  0  0  0  0  0  0  0  0  0
   -5.4476   -4.1294    1.6789 H   0  0  0  0  0  0  0  0  0  0  0  0
   -6.9939   -1.1455   -0.8254 H   0  0  0  0  0  0  0  0  0  0  0  0
   -4.8314    2.6829   -1.4430 H   0  0  0  0  0  0  0  0  0  0  0  0
   -5.6822    2.2626   -5.6414 H   0  0  0  0  0  0  0  0  0  0  0  0
   -5.9517   -1.1613   -3.0473 H   0  0  0  0  0  0  0  0  0  0  0  0
   -3.4152    1.1656   -0.2792 H   0  0  0  0  0  0  0  0  0  0  0  0
   -3.8083   -0.1549    4.0077 H   0  0  0  0  0  0  0  0  0  0  0  0
    1.3349    1.7897    4.5933 H   0  0  0  0  0  0  0  0  0  0  0  0
    0.9776    1.4672    6.9745 H   0  0  0  0  0  0  0  0  0  0  0  0
   -1.1742    0.5568    7.8094 H   0  0  0  0  0  0  0  0  0  0  0  0
   -2.9538   -0.0383    6.2328 H   0  0  0  0  0  0  0  0  0  0  0  0
  1  2  2  0
  2  3  1  0
  2  4  1  0
  4  5  1  0
  5  6  2  0
  6  7  1  0
  7  8  2  0
  8  9  1  0
  9 10  1  0
 10 11  2  0
 11 12  1  0
 12 13  1  0
 13 14  1  0
 13 15  1  0
 13 16  1  0
 12 17  2  0
 17 18  1  0
 18 19  1  0
 19 20  1  0
 19 21  1  0
 19 22  1  0
 18 23  2  0
  9 24  2  0
 24 25  1  0
 25 26  1  0
 26 27  2  0
 27 28  1  0
 28 29  1  0
 29 30  1  0
 29 31  1  0
 29 32  1  0
 28 33  2  0
 33 34  1  0
 34 35  1  0
 35 36  1  0
 35 37  1  0
 35 38  1  0
 34 39  2  0
 25 40  2  0
  6 41  1  0
 41 42  2  0
 42 43  1  0
 43 44  1  0
 44 45  2  0
 45 46  1  0
 46 47  2  0
 43 48  2  0
 48 49  1  0
 49 50  2  0
 50 51  1  0
 50 52  1  0
 52 53  1  0
 53 54  2  0
 54 55  1  0
 55 56  1  0
 56 57  2  0
 57 58  1  0
 58 59  1  0
 59 60  1  0
 59 61  1  0
 59 62  1  0
 58 63  2  0
 63 64  1  0
 64 65  1  0
 65 66  1  0
 65 67  1  0
 65 68  1  0
 64 69  2  0
 55 70  2  0
 70 71  1  0
 71 72  1  0
 72 73  2  0
 73 74  1  0
 74 75  1  0
 75 76  1  0
 75 77  1  0
 75 78  1  0
 74 79  2  0
 79 80  1  0
 80 81  1  0
 81 82  1  0
 81 83  1  0
 81 84  1  0
 80 85  2  0
 71 86  2  0
 52 87  2  0
 87 88  1  0
 88 89  2  0
 89 90  1  0
 90 91  2  0
 91 92  1  0
 92 93  2  0
 51  2  1  0
 48  5  1  0
 40  7  1  0
 23 10  1  0
 39 26  1  0
 47 42  1  0
 89 49  1  0
 86 53  1  0
 69 56  1  0
 85 72  1  0
 93 88  1  0
  3 94  1  0
  8 95  1  0
 11 96  1  0
 17 97  1  0
 23 98  1  0
 24 99  1  0
 27100  1  0
 33101  1  0
 39102  1  0
 40103  1  0
 41104  1  0
 44105  1  0
 45106  1  0
 46107  1  0
 47108  1  0
 54109  1  0
 57110  1  0
 63111  1  0
 69112  1  0
 70113  1  0
 73114  1  0
 79115  1  0
 85116  1  0
 86117  1  0
 87118  1  0
 90119  1  0
 91120  1  0
 92121  1  0
 93122  1  0
M  END
