
     RDKit          3D

 76 82  0  0  0  0  0  0  0  0999 V2000
    1.3591    3.2525    1.6324 O   0  0  0  0  0  0  0  0  0  0  0  0
    0.8848    2.2852    0.5947 P   0  0  0  0  0  5  0  0  0  0  0  0
    0.7423    2.9411   -0.8698 O   0  0  0  0  0  0  0  0  0  0  0  0
    1.8956    1.0684    0.2976 O   0  0  0  0  0  0  0  0  0  0  0  0
    1.8833    0.0058    1.1659 C   0  0  0  0  0  0  0  0  0  0  0  0
    3.0122   -0.1811    1.9763 C   0  0  0  0  0  0  0  0  0  0  0  0
    4.1979    0.7630    1.9735 C   0  0  0  0  0  0  0  0  0  0  0  0
    4.8187    1.0533    0.6155 C   0  0  0  0  0  0  0  0  0  0  0  0
    4.7710    2.3805    0.1446 C   0  0  0  0  0  0  0  0  0  0  0  0
    5.2867    2.7244   -1.1049 C   0  0  0  0  0  0  0  0  0  0  0  0
    5.8765    1.7542   -1.9191 C   0  0  0  0  0  0  0  0  0  0  0  0
    6.3949    2.1152   -3.2900 C   0  0  0  0  0  0  0  0  0  0  0  0
    7.4070    1.3045   -3.7087 F   0  0  0  0  0  0  0  0  0  0  0  0
    6.8797    3.3854   -3.3637 F   0  0  0  0  0  0  0  0  0  0  0  0
    5.4265    2.0277   -4.2441 F   0  0  0  0  0  0  0  0  0  0  0  0
    5.9363    0.4309   -1.4530 C   0  0  0  0  0  0  0  0  0  0  0  0
    5.4308    0.0629   -0.1863 C   0  0  0  0  0  0  0  0  0  0  0  0
    5.5387   -1.3906    0.2335 C   0  0  0  0  0  0  0  0  0  0  0  0
    5.8372   -1.5588    1.5511 F   0  0  0  0  0  0  0  0  0  0  0  0
    4.3966   -2.0920    0.0013 F   0  0  0  0  0  0  0  0  0  0  0  0
    6.5185   -2.0616   -0.4393 F   0  0  0  0  0  0  0  0  0  0  0  0
    3.0069   -1.2617    2.8609 C   0  0  0  0  0  0  0  0  0  0  0  0
    1.9146   -2.1313    2.9464 C   0  0  0  0  0  0  0  0  0  0  0  0
    0.7845   -1.9405    2.1086 C   0  0  0  0  0  0  0  0  0  0  0  0
   -0.3141   -2.8109    2.3260 C   0  0  0  0  0  0  0  0  0  0  0  0
   -0.2780   -3.8459    3.2642 C   0  0  0  0  0  0  0  0  0  0  0  0
    0.8573   -4.0380    4.0345 C   0  0  0  0  0  0  0  0  0  0  0  0
    1.9435   -3.1811    3.8801 C   0  0  0  0  0  0  0  0  0  0  0  0
    0.7758   -0.8744    1.1400 C   0  0  0  0  0  0  0  0  0  0  0  0
   -0.2726   -0.6846    0.1612 C   0  0  0  0  0  0  0  0  0  0  0  0
   -0.9575    0.5549    0.0694 C   0  0  0  0  0  0  0  0  0  0  0  0
   -0.5597    1.6168    0.8474 O   0  0  0  0  0  0  0  0  0  0  0  0
   -2.0837    0.7624   -0.7424 C   0  0  0  0  0  0  0  0  0  0  0  0
   -2.8328    2.0814   -0.7519 C   0  0  0  0  0  0  0  0  0  0  0  0
   -4.3446    1.9536   -0.6392 C   0  0  0  0  0  0  0  0  0  0  0  0
   -4.9935    1.5736    0.5592 C   0  0  0  0  0  0  0  0  0  0  0  0
   -4.2400    1.2804    1.8445 C   0  0  0  0  0  0  0  0  0  0  0  0
   -3.3106    2.2254    2.1488 F   0  0  0  0  0  0  0  0  0  0  0  0
   -5.0578    1.2166    2.9348 F   0  0  0  0  0  0  0  0  0  0  0  0
   -3.5869    0.0879    1.8115 F   0  0  0  0  0  0  0  0  0  0  0  0
   -6.3988    1.4383    0.5560 C   0  0  0  0  0  0  0  0  0  0  0  0
   -7.1646    1.6898   -0.5944 C   0  0  0  0  0  0  0  0  0  0  0  0
   -8.6640    1.5089   -0.5719 C   0  0  0  0  0  0  0  0  0  0  0  0
   -9.2260    1.8940    0.6070 F   0  0  0  0  0  0  0  0  0  0  0  0
   -9.3062    2.2204   -1.5397 F   0  0  0  0  0  0  0  0  0  0  0  0
   -9.0282    0.2104   -0.7566 F   0  0  0  0  0  0  0  0  0  0  0  0
   -6.5075    2.0740   -1.7666 C   0  0  0  0  0  0  0  0  0  0  0  0
   -5.1190    2.2074   -1.7878 C   0  0  0  0  0  0  0  0  0  0  0  0
   -2.4832   -0.2789   -1.5834 C   0  0  0  0  0  0  0  0  0  0  0  0
   -1.7991   -1.4971   -1.6145 C   0  0  0  0  0  0  0  0  0  0  0  0
   -0.6853   -1.7118   -0.7609 C   0  0  0  0  0  0  0  0  0  0  0  0
   -0.0015   -2.9448   -0.9210 C   0  0  0  0  0  0  0  0  0  0  0  0
   -0.4240   -3.9280   -1.8192 C   0  0  0  0  0  0  0  0  0  0  0  0
   -1.5423   -3.7072   -2.6068 C   0  0  0  0  0  0  0  0  0  0  0  0
   -2.2215   -2.4962   -2.5085 C   0  0  0  0  0  0  0  0  0  0  0  0
    0.6240    2.2601   -1.5555 H   0  0  0  0  0  0  0  0  0  0  0  0
    4.9957    0.3919    2.6292 H   0  0  0  0  0  0  0  0  0  0  0  0
    3.8641    1.6972    2.4451 H   0  0  0  0  0  0  0  0  0  0  0  0
    4.3062    3.1611    0.7492 H   0  0  0  0  0  0  0  0  0  0  0  0
    5.2175    3.7584   -1.4410 H   0  0  0  0  0  0  0  0  0  0  0  0
    6.3881   -0.3324   -2.0908 H   0  0  0  0  0  0  0  0  0  0  0  0
    3.8673   -1.4202    3.5109 H   0  0  0  0  0  0  0  0  0  0  0  0
   -1.2388   -2.6837    1.7656 H   0  0  0  0  0  0  0  0  0  0  0  0
   -1.1430   -4.4920    3.3919 H   0  0  0  0  0  0  0  0  0  0  0  0
    0.8936   -4.8403    4.7664 H   0  0  0  0  0  0  0  0  0  0  0  0
    2.8174   -3.3342    4.5111 H   0  0  0  0  0  0  0  0  0  0  0  0
   -2.4927    2.7580    0.0390 H   0  0  0  0  0  0  0  0  0  0  0  0
   -2.5692    2.5963   -1.6857 H   0  0  0  0  0  0  0  0  0  0  0  0
   -6.9102    1.1298    1.4711 H   0  0  0  0  0  0  0  0  0  0  0  0
   -7.0757    2.2692   -2.6761 H   0  0  0  0  0  0  0  0  0  0  0  0
   -4.6394    2.5045   -2.7201 H   0  0  0  0  0  0  0  0  0  0  0  0
   -3.3390   -0.1361   -2.2418 H   0  0  0  0  0  0  0  0  0  0  0  0
    0.8977   -3.1584   -0.3447 H   0  0  0  0  0  0  0  0  0  0  0  0
    0.1279   -4.8614   -1.8993 H   0  0  0  0  0  0  0  0  0  0  0  0
   -1.8777   -4.4671   -3.3065 H   0  0  0  0  0  0  0  0  0  0  0  0
   -3.0878   -2.3351   -3.1486 H   0  0  0  0  0  0  0  0  0  0  0  0
  1  2  2  0
  2  3  1  0
  2  4  1  0
  4  5  1  0
  5  6  2  0
  6  7  1  0
  7  8  1  0
  8  9  2  0
  9 10  1  0
 10 11  2  0
 11 12  1  0
 12 13  1  0
 12 14  1  0
 12 15  1  0
 11 16  1  0
 16 17  2  0
 17 18  1  0
 18 19  1  0
 18 20  1  0
 18 21  1  0
  6 22  1  0
 22 23  2  0
 23 24  1  0
 24 25  1  0
 25 26  2  0
 26 27  1  0
 27 28  2  0
 24 29  2  0
 29 30  1  0
 30 31  2  0
 31 32  1  0
 31 33  1  0
 33 34  1  0
 34 35  1  0
 35 36  2  0
 36 37  1  0
 37 38  1  0
 37 39  1  0
 37 40  1  0
 36 41  1  0
 41 42  2  0
 42 43  1  0
 43 44  1  0
 43 45  1  0
 43 46  1  0
 42 47  1  0
 47 48  2  0
 33 49  2  0
 49 50  1  0
 50 51  2  0
 51 52  1  0
 52 53  2  0
 53 54  1  0
 54 55  2  0
 32  2  1  0
 29  5  1  0
 17  8  1  0
 28 23  1  0
 51 30  1  0
 48 35  1  0
 55 50  1  0
  3 56  1  0
  7 57  1  0
  7 58  1  0
  9 59  1  0
 10 60  1  0
 16 61  1  0
 22 62  1  0
 25 63  1  0
 26 64  1  0
 27 65  1  0
 28 66  1  0
 34 67  1  0
 34 68  1  0
 41 69  1  0
 47 70  1  0
 48 71  1  0
 49 72  1  0
 52 73  1  0
 53 74  1  0
 54 75  1  0
 55 76  1  0
M  END
