
     RDKit          3D

112122  0  0  0  0  0  0  0  0999 V2000
    0.4240   -2.6299   -0.9580 O   0  0  0  0  0  0  0  0  0  0  0  0
    0.0417   -1.1928   -1.1255 P   0  0  0  0  0  5  0  0  0  0  0  0
   -0.5554   -0.9127   -2.5899 O   0  0  0  0  0  0  0  0  0  0  0  0
    1.2454   -0.1328   -1.0357 O   0  0  0  0  0  0  0  0  0  0  0  0
    1.6320    0.3740    0.1773 C   0  0  0  0  0  0  0  0  0  0  0  0
    2.9415    0.0879    0.6376 C   0  0  0  0  0  0  0  0  0  0  0  0
    4.1766   -1.0027   -0.2690 Si  0  0  0  0  0  4  0  0  0  0  0  0
    4.0975   -2.7368    0.4400 C   0  0  0  0  0  0  0  0  0  0  0  0
    5.1609   -3.6452    0.2470 C   0  0  0  0  0  0  0  0  0  0  0  0
    5.1172   -4.9390    0.7740 C   0  0  0  0  0  0  0  0  0  0  0  0
    4.0075   -5.3581    1.5000 C   0  0  0  0  0  0  0  0  0  0  0  0
    2.9425   -4.4849    1.6979 C   0  0  0  0  0  0  0  0  0  0  0  0
    2.9857   -3.1886    1.1744 C   0  0  0  0  0  0  0  0  0  0  0  0
    3.8605   -1.0410   -2.1044 C   0  0  0  0  0  0  0  0  0  0  0  0
    3.7349   -2.2523   -2.8122 C   0  0  0  0  0  0  0  0  0  0  0  0
    3.4822   -2.2694   -4.1879 C   0  0  0  0  0  0  0  0  0  0  0  0
    3.3438   -1.0772   -4.8902 C   0  0  0  0  0  0  0  0  0  0  0  0
    3.4532    0.1344   -4.2171 C   0  0  0  0  0  0  0  0  0  0  0  0
    3.7049    0.1524   -2.8419 C   0  0  0  0  0  0  0  0  0  0  0  0
    5.9181   -0.3553    0.0691 C   0  0  0  0  0  0  0  0  0  0  0  0
    6.5908   -0.6868    1.2665 C   0  0  0  0  0  0  0  0  0  0  0  0
    7.8786   -0.2141    1.5367 C   0  0  0  0  0  0  0  0  0  0  0  0
    8.5283    0.6019    0.6179 C   0  0  0  0  0  0  0  0  0  0  0  0
    7.8921    0.9411   -0.5714 C   0  0  0  0  0  0  0  0  0  0  0  0
    6.6038    0.4675   -0.8440 C   0  0  0  0  0  0  0  0  0  0  0  0
    3.3108    0.6534    1.8693 C   0  0  0  0  0  0  0  0  0  0  0  0
    2.4238    1.4368    2.6079 C   0  0  0  0  0  0  0  0  0  0  0  0
    1.1352    1.7210    2.1098 C   0  0  0  0  0  0  0  0  0  0  0  0
    0.2296    2.4993    3.0506 C   0  0  0  0  0  0  0  0  0  0  0  0
    0.3203    1.9393    4.4724 C   0  0  0  0  0  0  0  0  0  0  0  0
    1.7535    1.8080    4.9983 C   0  0  0  0  0  0  0  0  0  0  0  0
    2.8329    2.0185    3.9376 C   0  0  0  0  0  0  0  0  0  0  0  0
    0.7200    1.2462    0.8366 C   0  0  0  0  0  0  0  0  0  0  0  0
   -0.5483    1.6114    0.2510 C   0  0  0  0  0  0  0  0  0  0  0  0
   -1.5041    0.6270   -0.1186 C   0  0  0  0  0  0  0  0  0  0  0  0
   -1.1212   -0.6939   -0.1236 O   0  0  0  0  0  0  0  0  0  0  0  0
   -2.8663    0.9124   -0.3926 C   0  0  0  0  0  0  0  0  0  0  0  0
   -4.1739   -0.4175   -0.5588 Si  0  0  0  0  0  4  0  0  0  0  0  0
   -3.7539   -1.4516   -2.0520 C   0  0  0  0  0  0  0  0  0  0  0  0
   -3.7002   -0.8695   -3.3363 C   0  0  0  0  0  0  0  0  0  0  0  0
   -3.3889   -1.6295   -4.4680 C   0  0  0  0  0  0  0  0  0  0  0  0
   -3.1095   -2.9863   -4.3422 C   0  0  0  0  0  0  0  0  0  0  0  0
   -3.1338   -3.5816   -3.0850 C   0  0  0  0  0  0  0  0  0  0  0  0
   -3.4502   -2.8237   -1.9528 C   0  0  0  0  0  0  0  0  0  0  0  0
   -5.8821    0.3489   -0.7167 C   0  0  0  0  0  0  0  0  0  0  0  0
   -6.4133    1.1078    0.3498 C   0  0  0  0  0  0  0  0  0  0  0  0
   -7.6836    1.6846    0.2706 C   0  0  0  0  0  0  0  0  0  0  0  0
   -8.4561    1.5131   -0.8728 C   0  0  0  0  0  0  0  0  0  0  0  0
   -7.9632    0.7572   -1.9319 C   0  0  0  0  0  0  0  0  0  0  0  0
   -6.6931    0.1763   -1.8535 C   0  0  0  0  0  0  0  0  0  0  0  0
   -4.3003   -1.4790    0.9814 C   0  0  0  0  0  0  0  0  0  0  0  0
   -3.4670   -1.3006    2.1012 C   0  0  0  0  0  0  0  0  0  0  0  0
   -3.5944   -2.1076    3.2366 C   0  0  0  0  0  0  0  0  0  0  0  0
   -4.5650   -3.1028    3.2844 C   0  0  0  0  0  0  0  0  0  0  0  0
   -5.4137   -3.2905    2.1991 C   0  0  0  0  0  0  0  0  0  0  0  0
   -5.2869   -2.4859    1.0634 C   0  0  0  0  0  0  0  0  0  0  0  0
   -3.2178    2.2660   -0.5090 C   0  0  0  0  0  0  0  0  0  0  0  0
   -2.2731    3.2766   -0.3248 C   0  0  0  0  0  0  0  0  0  0  0  0
   -0.9541    2.9595    0.0626 C   0  0  0  0  0  0  0  0  0  0  0  0
   -0.0102    4.1401    0.2078 C   0  0  0  0  0  0  0  0  0  0  0  0
   -0.1591    5.1010   -0.9741 C   0  0  0  0  0  0  0  0  0  0  0  0
   -1.6077    5.4990   -1.2772 C   0  0  0  0  0  0  0  0  0  0  0  0
   -2.6546    4.7278   -0.4743 C   0  0  0  0  0  0  0  0  0  0  0  0
   -1.0504   -1.6896   -2.9106 H   0  0  0  0  0  0  0  0  0  0  0  0
    6.0449   -3.3551   -0.3217 H   0  0  0  0  0  0  0  0  0  0  0  0
    5.9494   -5.6187    0.6112 H   0  0  0  0  0  0  0  0  0  0  0  0
    3.9682   -6.3654    1.9047 H   0  0  0  0  0  0  0  0  0  0  0  0
    2.0664   -4.8117    2.2524 H   0  0  0  0  0  0  0  0  0  0  0  0
    2.1215   -2.5480    1.3436 H   0  0  0  0  0  0  0  0  0  0  0  0
    3.8128   -3.2132   -2.3047 H   0  0  0  0  0  0  0  0  0  0  0  0
    3.3842   -3.2202   -4.7051 H   0  0  0  0  0  0  0  0  0  0  0  0
    3.1408   -1.0926   -5.9572 H   0  0  0  0  0  0  0  0  0  0  0  0
    3.3309    1.0695   -4.7569 H   0  0  0  0  0  0  0  0  0  0  0  0
    3.7571    1.1226   -2.3473 H   0  0  0  0  0  0  0  0  0  0  0  0
    6.1197   -1.3259    2.0143 H   0  0  0  0  0  0  0  0  0  0  0  0
    8.3721   -0.4885    2.4656 H   0  0  0  0  0  0  0  0  0  0  0  0
    9.5293    0.9698    0.8257 H   0  0  0  0  0  0  0  0  0  0  0  0
    8.3986    1.5738   -1.2961 H   0  0  0  0  0  0  0  0  0  0  0  0
    6.1578    0.7556   -1.7927 H   0  0  0  0  0  0  0  0  0  0  0  0
    4.2986    0.4760    2.2904 H   0  0  0  0  0  0  0  0  0  0  0  0
   -0.8197    2.4482    2.7466 H   0  0  0  0  0  0  0  0  0  0  0  0
    0.5296    3.5536    3.0472 H   0  0  0  0  0  0  0  0  0  0  0  0
   -0.1458    0.9446    4.4898 H   0  0  0  0  0  0  0  0  0  0  0  0
   -0.2697    2.5624    5.1547 H   0  0  0  0  0  0  0  0  0  0  0  0
    1.9172    2.5147    5.8208 H   0  0  0  0  0  0  0  0  0  0  0  0
    1.8671    0.8077    5.4369 H   0  0  0  0  0  0  0  0  0  0  0  0
    3.7731    1.5799    4.2918 H   0  0  0  0  0  0  0  0  0  0  0  0
    3.0181    3.0915    3.7992 H   0  0  0  0  0  0  0  0  0  0  0  0
   -3.8952    0.1948   -3.4745 H   0  0  0  0  0  0  0  0  0  0  0  0
   -3.3594   -1.1555   -5.4464 H   0  0  0  0  0  0  0  0  0  0  0  0
   -2.8681   -3.5782   -5.2213 H   0  0  0  0  0  0  0  0  0  0  0  0
   -2.9065   -4.6402   -2.9798 H   0  0  0  0  0  0  0  0  0  0  0  0
   -3.4445   -3.3334   -0.9890 H   0  0  0  0  0  0  0  0  0  0  0  0
   -5.8412    1.2562    1.2667 H   0  0  0  0  0  0  0  0  0  0  0  0
   -8.0690    2.2626    1.1066 H   0  0  0  0  0  0  0  0  0  0  0  0
   -9.4449    1.9589   -0.9342 H   0  0  0  0  0  0  0  0  0  0  0  0
   -8.5698    0.6114   -2.8223 H   0  0  0  0  0  0  0  0  0  0  0  0
   -6.3642   -0.4238   -2.6993 H   0  0  0  0  0  0  0  0  0  0  0  0
   -2.6991   -0.5302    2.1204 H   0  0  0  0  0  0  0  0  0  0  0  0
   -2.9325   -1.9541    4.0852 H   0  0  0  0  0  0  0  0  0  0  0  0
   -4.6623   -3.7279    4.1675 H   0  0  0  0  0  0  0  0  0  0  0  0
   -6.1792   -4.0613    2.2335 H   0  0  0  0  0  0  0  0  0  0  0  0
   -5.9780   -2.6574    0.2375 H   0  0  0  0  0  0  0  0  0  0  0  0
   -4.2354    2.5604   -0.7630 H   0  0  0  0  0  0  0  0  0  0  0  0
   -0.2382    4.6650    1.1422 H   0  0  0  0  0  0  0  0  0  0  0  0
    1.0362    3.8245    0.2510 H   0  0  0  0  0  0  0  0  0  0  0  0
    0.4429    5.9996   -0.7962 H   0  0  0  0  0  0  0  0  0  0  0  0
    0.2638    4.6266   -1.8701 H   0  0  0  0  0  0  0  0  0  0  0  0
   -1.7429    6.5732   -1.1053 H   0  0  0  0  0  0  0  0  0  0  0  0
   -1.7887    5.3429   -2.3488 H   0  0  0  0  0  0  0  0  0  0  0  0
   -3.6298    4.8316   -0.9647 H   0  0  0  0  0  0  0  0  0  0  0  0
   -2.7550    5.1627    0.5281 H   0  0  0  0  0  0  0  0  0  0  0  0
  1  2  2  0
  2  3  1  0
  2  4  1  0
  4  5  1  0
  5  6  2  0
  6  7  1  0
  7  8  1  0
  8  9  2  0
  9 10  1  0
 10 11  2  0
 11 12  1  0
 12 13  2  0
  7 14  1  0
 14 15  2  0
 15 16  1  0
 16 17  2  0
 17 18  1  0
 18 19  2  0
  7 20  1  0
 20 21  2  0
 21 22  1  0
 22 23  2  0
 23 24  1  0
 24 25  2  0
  6 26  1  0
 26 27  2  0
 27 28  1  0
 28 29  1  0
 29 30  1  0
 30 31  1  0
 31 32  1  0
 28 33  2  0
 33 34  1  0
 34 35  2  0
 35 36  1  0
 35 37  1  0
 37 38  1  0
 38 39  1  0
 39 40  2  0
 40 41  1  0
 41 42  2  0
 42 43  1  0
 43 44  2  0
 38 45  1  0
 45 46  2  0
 46 47  1  0
 47 48  2  0
 48 49  1  0
 49 50  2  0
 38 51  1  0
 51 52  2  0
 52 53  1  0
 53 54  2  0
 54 55  1  0
 55 56  2  0
 37 57  2  0
 57 58  1  0
 58 59  2  0
 59 60  1  0
 60 61  1  0
 61 62  1  0
 62 63  1  0
 36  2  1  0
 33  5  1  0
 13  8  1  0
 19 14  1  0
 25 20  1  0
 32 27  1  0
 59 34  1  0
 44 39  1  0
 50 45  1  0
 56 51  1  0
 63 58  1  0
  3 64  1  0
  9 65  1  0
 10 66  1  0
 11 67  1  0
 12 68  1  0
 13 69  1  0
 15 70  1  0
 16 71  1  0
 17 72  1  0
 18 73  1  0
 19 74  1  0
 21 75  1  0
 22 76  1  0
 23 77  1  0
 24 78  1  0
 25 79  1  0
 26 80  1  0
 29 81  1  0
 29 82  1  0
 30 83  1  0
 30 84  1  0
 31 85  1  0
 31 86  1  0
 32 87  1  0
 32 88  1  0
 40 89  1  0
 41 90  1  0
 42 91  1  0
 43 92  1  0
 44 93  1  0
 46 94  1  0
 47 95  1  0
 48 96  1  0
 49 97  1  0
 50 98  1  0
 52 99  1  0
 53100  1  0
 54101  1  0
 55102  1  0
 56103  1  0
 57104  1  0
 60105  1  0
 60106  1  0
 61107  1  0
 61108  1  0
 62109  1  0
 62110  1  0
 63111  1  0
 63112  1  0
M  END
