
     RDKit          3D

 90 98  0  0  0  0  0  0  0  0999 V2000
    0.2802   -1.4975    1.5200 O   0  0  0  0  0  0  0  0  0  0  0  0
   -0.0601   -0.5861    0.3829 P   0  0  0  0  0  5  0  0  0  0  0  0
   -0.5137   -1.4527   -0.8954 O   0  0  0  0  0  0  0  0  0  0  0  0
   -1.3032    0.4065    0.6485 O   0  0  0  0  0  0  0  0  0  0  0  0
   -1.5275    1.4463   -0.2245 C   0  0  0  0  0  0  0  0  0  0  0  0
   -2.7343    1.4465   -0.9445 C   0  0  0  0  0  0  0  0  0  0  0  0
   -3.8380    0.4950   -0.6958 C   0  0  0  0  0  0  0  0  0  0  0  0
   -4.4600   -0.1924   -1.7523 C   0  0  0  0  0  0  0  0  0  0  0  0
   -5.5807   -1.0070   -1.5295 C   0  0  0  0  0  0  0  0  0  0  0  0
   -6.1198   -1.1659   -0.2425 C   0  0  0  0  0  0  0  0  0  0  0  0
   -7.3317   -1.9727   -0.0100 C   0  0  0  0  0  0  0  0  0  0  0  0
   -7.3665   -2.9469    1.0045 C   0  0  0  0  0  0  0  0  0  0  0  0
   -8.5279   -3.6953    1.2616 C   0  0  0  0  0  0  0  0  0  0  0  0
   -8.5596   -4.7145    2.3721 C   0  0  0  0  0  0  0  0  0  0  0  0
   -9.3490   -5.7788    2.0830 F   0  0  0  0  0  0  0  0  0  0  0  0
   -7.3358   -5.2246    2.6654 F   0  0  0  0  0  0  0  0  0  0  0  0
   -9.0406   -4.1979    3.5318 F   0  0  0  0  0  0  0  0  0  0  0  0
   -9.6791   -3.4524    0.4961 C   0  0  0  0  0  0  0  0  0  0  0  0
   -9.6742   -2.4907   -0.5254 C   0  0  0  0  0  0  0  0  0  0  0  0
  -10.9233   -2.2525   -1.3404 C   0  0  0  0  0  0  0  0  0  0  0  0
  -12.0396   -2.1466   -0.5667 F   0  0  0  0  0  0  0  0  0  0  0  0
  -11.1674   -3.2681   -2.2100 F   0  0  0  0  0  0  0  0  0  0  0  0
  -10.8811   -1.1190   -2.0910 F   0  0  0  0  0  0  0  0  0  0  0  0
   -8.4948   -1.7679   -0.7764 C   0  0  0  0  0  0  0  0  0  0  0  0
   -5.4803   -0.5049    0.8184 C   0  0  0  0  0  0  0  0  0  0  0  0
   -4.3608    0.3095    0.5967 C   0  0  0  0  0  0  0  0  0  0  0  0
   -2.9055    2.4483   -1.9102 C   0  0  0  0  0  0  0  0  0  0  0  0
   -1.9341    3.4256   -2.1430 C   0  0  0  0  0  0  0  0  0  0  0  0
   -0.7663    3.4667   -1.3418 C   0  0  0  0  0  0  0  0  0  0  0  0
    0.1823    4.4733   -1.6557 C   0  0  0  0  0  0  0  0  0  0  0  0
   -0.0224    5.4019   -2.6706 C   0  0  0  0  0  0  0  0  0  0  0  0
   -1.1798    5.3473   -3.4318 C   0  0  0  0  0  0  0  0  0  0  0  0
   -2.1298    4.3644   -3.1697 C   0  0  0  0  0  0  0  0  0  0  0  0
   -0.5624    2.4784   -0.3196 C   0  0  0  0  0  0  0  0  0  0  0  0
    0.5709    2.4999    0.5620 C   0  0  0  0  0  0  0  0  0  0  0  0
    1.4879    1.4263    0.5410 C   0  0  0  0  0  0  0  0  0  0  0  0
    1.1621    0.3014   -0.1818 O   0  0  0  0  0  0  0  0  0  0  0  0
    2.7393    1.4668    1.1777 C   0  0  0  0  0  0  0  0  0  0  0  0
    3.7985    0.4736    0.9309 C   0  0  0  0  0  0  0  0  0  0  0  0
    4.4495   -0.2018    1.9697 C   0  0  0  0  0  0  0  0  0  0  0  0
    5.5662   -1.0123    1.7175 C   0  0  0  0  0  0  0  0  0  0  0  0
    6.0671   -1.1791    0.4184 C   0  0  0  0  0  0  0  0  0  0  0  0
    7.2837   -1.9653    0.1427 C   0  0  0  0  0  0  0  0  0  0  0  0
    8.3381   -1.4096   -0.6122 C   0  0  0  0  0  0  0  0  0  0  0  0
    9.4975   -2.1379   -0.9110 C   0  0  0  0  0  0  0  0  0  0  0  0
   10.5993   -1.5315   -1.7485 C   0  0  0  0  0  0  0  0  0  0  0  0
   10.5003   -1.8826   -3.0573 F   0  0  0  0  0  0  0  0  0  0  0  0
   10.6081   -0.1676   -1.7246 F   0  0  0  0  0  0  0  0  0  0  0  0
   11.8433   -1.9213   -1.3469 F   0  0  0  0  0  0  0  0  0  0  0  0
    9.5958   -3.4590   -0.4551 C   0  0  0  0  0  0  0  0  0  0  0  0
    8.5712   -4.0412    0.3104 C   0  0  0  0  0  0  0  0  0  0  0  0
    8.6911   -5.4718    0.7716 C   0  0  0  0  0  0  0  0  0  0  0  0
    8.3869   -6.3602   -0.2084 F   0  0  0  0  0  0  0  0  0  0  0  0
    7.8804   -5.7657    1.8239 F   0  0  0  0  0  0  0  0  0  0  0  0
    9.9517   -5.7855    1.1736 F   0  0  0  0  0  0  0  0  0  0  0  0
    7.4241   -3.2829    0.6051 C   0  0  0  0  0  0  0  0  0  0  0  0
    5.3772   -0.5469   -0.6251 C   0  0  0  0  0  0  0  0  0  0  0  0
    4.2694    0.2678   -0.3739 C   0  0  0  0  0  0  0  0  0  0  0  0
    3.0084    2.5692    1.9966 C   0  0  0  0  0  0  0  0  0  0  0  0
    2.0922    3.6124    2.1589 C   0  0  0  0  0  0  0  0  0  0  0  0
    0.8687    3.5930    1.4457 C   0  0  0  0  0  0  0  0  0  0  0  0
   -0.0227    4.6684    1.6947 C   0  0  0  0  0  0  0  0  0  0  0  0
    0.2872    5.7140    2.5717 C   0  0  0  0  0  0  0  0  0  0  0  0
    1.5051    5.7192    3.2320 C   0  0  0  0  0  0  0  0  0  0  0  0
    2.4012    4.6745    3.0259 C   0  0  0  0  0  0  0  0  0  0  0  0
   -0.3230   -2.3974   -0.7373 H   0  0  0  0  0  0  0  0  0  0  0  0
   -4.0842   -0.0951   -2.7693 H   0  0  0  0  0  0  0  0  0  0  0  0
   -6.0270   -1.5115   -2.3860 H   0  0  0  0  0  0  0  0  0  0  0  0
   -6.4678   -3.1329    1.5992 H   0  0  0  0  0  0  0  0  0  0  0  0
  -10.5937   -4.0154    0.7035 H   0  0  0  0  0  0  0  0  0  0  0  0
   -8.4901   -1.0089   -1.5578 H   0  0  0  0  0  0  0  0  0  0  0  0
   -5.8706   -0.5857    1.8311 H   0  0  0  0  0  0  0  0  0  0  0  0
   -3.9218    0.8321    1.4492 H   0  0  0  0  0  0  0  0  0  0  0  0
   -3.8240    2.4705   -2.4909 H   0  0  0  0  0  0  0  0  0  0  0  0
    1.1205    4.5346   -1.1106 H   0  0  0  0  0  0  0  0  0  0  0  0
    0.7289    6.1591   -2.8771 H   0  0  0  0  0  0  0  0  0  0  0  0
   -1.3344    6.0647   -4.2320 H   0  0  0  0  0  0  0  0  0  0  0  0
   -3.0246    4.3281   -3.7861 H   0  0  0  0  0  0  0  0  0  0  0  0
    4.1114   -0.0822    2.9984 H   0  0  0  0  0  0  0  0  0  0  0  0
    6.0668   -1.4843    2.5623 H   0  0  0  0  0  0  0  0  0  0  0  0
    8.2551   -0.3837   -0.9721 H   0  0  0  0  0  0  0  0  0  0  0  0
   10.4807   -4.0552   -0.7012 H   0  0  0  0  0  0  0  0  0  0  0  0
    6.6240   -3.7387    1.1921 H   0  0  0  0  0  0  0  0  0  0  0  0
    5.7156   -0.6580   -1.6563 H   0  0  0  0  0  0  0  0  0  0  0  0
    3.8010    0.7750   -1.2157 H   0  0  0  0  0  0  0  0  0  0  0  0
    3.9665    2.6200    2.5211 H   0  0  0  0  0  0  0  0  0  0  0  0
   -0.9997    4.6960    1.2133 H   0  0  0  0  0  0  0  0  0  0  0  0
   -0.4285    6.5143    2.7391 H   0  0  0  0  0  0  0  0  0  0  0  0
    1.7621    6.5245    3.9181 H   0  0  0  0  0  0  0  0  0  0  0  0
    3.3437    4.6906    3.5665 H   0  0  0  0  0  0  0  0  0  0  0  0
  1  2  2  0
  2  3  1  0
  2  4  1  0
  4  5  1  0
  5  6  2  0
  6  7  1  0
  7  8  2  0
  8  9  1  0
  9 10  2  0
 10 11  1  0
 11 12  2  0
 12 13  1  0
 13 14  1  0
 14 15  1  0
 14 16  1  0
 14 17  1  0
 13 18  2  0
 18 19  1  0
 19 20  1  0
 20 21  1  0
 20 22  1  0
 20 23  1  0
 19 24  2  0
 10 25  1  0
 25 26  2  0
  6 27  1  0
 27 28  2  0
 28 29  1  0
 29 30  1  0
 30 31  2  0
 31 32  1  0
 32 33  2  0
 29 34  2  0
 34 35  1  0
 35 36  2  0
 36 37  1  0
 36 38  1  0
 38 39  1  0
 39 40  2  0
 40 41  1  0
 41 42  2  0
 42 43  1  0
 43 44  2  0
 44 45  1  0
 45 46  1  0
 46 47  1  0
 46 48  1  0
 46 49  1  0
 45 50  2  0
 50 51  1  0
 51 52  1  0
 52 53  1  0
 52 54  1  0
 52 55  1  0
 51 56  2  0
 42 57  1  0
 57 58  2  0
 38 59  2  0
 59 60  1  0
 60 61  2  0
 61 62  1  0
 62 63  2  0
 63 64  1  0
 64 65  2  0
 37  2  1  0
 34  5  1  0
 26  7  1  0
 24 11  1  0
 33 28  1  0
 61 35  1  0
 58 39  1  0
 56 43  1  0
 65 60  1  0
  3 66  1  0
  8 67  1  0
  9 68  1  0
 12 69  1  0
 18 70  1  0
 24 71  1  0
 25 72  1  0
 26 73  1  0
 27 74  1  0
 30 75  1  0
 31 76  1  0
 32 77  1  0
 33 78  1  0
 40 79  1  0
 41 80  1  0
 44 81  1  0
 50 82  1  0
 56 83  1  0
 57 84  1  0
 58 85  1  0
 59 86  1  0
 62 87  1  0
 63 88  1  0
 64 89  1  0
 65 90  1  0
M  END
