
     RDKit          3D

 46 50  0  0  0  0  0  0  0  0999 V2000
   -2.7401    4.4046    0.0345 O   0  0  0  0  0  0  0  0  0  0  0  0
   -1.3943    3.8128    0.3134 P   0  0  0  0  0  5  0  0  0  0  0  0
   -0.3649    4.9505    0.7962 O   0  0  0  0  0  0  0  0  0  0  0  0
   -1.3341    2.7269    1.5014 O   0  0  0  0  0  0  0  0  0  0  0  0
   -1.7483    1.4526    1.1963 C   0  0  0  0  0  0  0  0  0  0  0  0
   -2.9382    0.9937    1.7670 C   0  0  0  0  0  0  0  0  0  0  0  0
   -3.9576    2.0731    2.9473 Br  0  0  0  0  0  0  0  0  0  0  0  0
   -3.3976   -0.2820    1.4747 C   0  0  0  0  0  0  0  0  0  0  0  0
   -2.6970   -1.0933    0.5751 C   0  0  0  0  0  0  0  0  0  0  0  0
   -1.4768   -0.6366    0.0114 C   0  0  0  0  0  0  0  0  0  0  0  0
   -0.8575   -1.4482   -1.1210 C   0  0  0  0  0  0  0  0  0  0  0  0
   -1.2388   -2.9258   -1.1059 C   0  0  0  0  0  0  0  0  0  0  0  0
   -2.7479   -3.0725   -1.0190 C   0  0  0  0  0  0  0  0  0  0  0  0
   -3.2581   -2.4666    0.2815 C   0  0  0  0  0  0  0  0  0  0  0  0
   -0.9394    0.6486    0.3597 C   0  0  0  0  0  0  0  0  0  0  0  0
    0.3423    1.1378   -0.0879 C   0  0  0  0  0  0  0  0  0  0  0  0
    0.4571    2.3821   -0.7584 C   0  0  0  0  0  0  0  0  0  0  0  0
   -0.6650    3.1513   -0.9617 O   0  0  0  0  0  0  0  0  0  0  0  0
    1.6693    2.8554   -1.2795 C   0  0  0  0  0  0  0  0  0  0  0  0
    1.7705    4.4999   -2.2230 Br  0  0  0  0  0  0  0  0  0  0  0  0
    2.8363    2.1241   -1.1070 C   0  0  0  0  0  0  0  0  0  0  0  0
    2.7962    0.9246   -0.3984 C   0  0  0  0  0  0  0  0  0  0  0  0
    1.5709    0.4416    0.1278 C   0  0  0  0  0  0  0  0  0  0  0  0
    1.6986   -0.7316    1.0889 C   0  0  0  0  0  0  0  0  0  0  0  0
    2.6324   -1.8355    0.5817 C   0  0  0  0  0  0  0  0  0  0  0  0
    3.8105   -1.3410   -0.2610 C   0  0  0  0  0  0  0  0  0  0  0  0
    4.0660    0.1560   -0.1231 C   0  0  0  0  0  0  0  0  0  0  0  0
   -0.6558    5.8191    0.4628 H   0  0  0  0  0  0  0  0  0  0  0  0
   -4.3207   -0.6428    1.9238 H   0  0  0  0  0  0  0  0  0  0  0  0
    0.2306   -1.3940   -1.1246 H   0  0  0  0  0  0  0  0  0  0  0  0
   -1.1978   -1.0003   -2.0641 H   0  0  0  0  0  0  0  0  0  0  0  0
   -0.8673   -3.4101   -2.0159 H   0  0  0  0  0  0  0  0  0  0  0  0
   -0.7638   -3.4286   -0.2541 H   0  0  0  0  0  0  0  0  0  0  0  0
   -3.0306   -4.1299   -1.0705 H   0  0  0  0  0  0  0  0  0  0  0  0
   -3.2176   -2.5718   -1.8750 H   0  0  0  0  0  0  0  0  0  0  0  0
   -4.3532   -2.4225    0.2377 H   0  0  0  0  0  0  0  0  0  0  0  0
   -2.9899   -3.1238    1.1185 H   0  0  0  0  0  0  0  0  0  0  0  0
    3.7798    2.4955   -1.4993 H   0  0  0  0  0  0  0  0  0  0  0  0
    0.7386   -1.1821    1.3503 H   0  0  0  0  0  0  0  0  0  0  0  0
    2.0983   -0.3294    2.0301 H   0  0  0  0  0  0  0  0  0  0  0  0
    2.0595   -2.5553   -0.0164 H   0  0  0  0  0  0  0  0  0  0  0  0
    3.0061   -2.4008    1.4444 H   0  0  0  0  0  0  0  0  0  0  0  0
    4.7154   -1.9033   -0.0030 H   0  0  0  0  0  0  0  0  0  0  0  0
    3.6006   -1.5683   -1.3151 H   0  0  0  0  0  0  0  0  0  0  0  0
    4.4198    0.3976    0.8862 H   0  0  0  0  0  0  0  0  0  0  0  0
    4.8536    0.4483   -0.8274 H   0  0  0  0  0  0  0  0  0  0  0  0
  1  2  2  0
  2  3  1  0
  2  4  1  0
  4  5  1  0
  5  6  2  0
  6  7  1  0
  6  8  1  0
  8  9  2  0
  9 10  1  0
 10 11  1  0
 11 12  1  0
 12 13  1  0
 13 14  1  0
 10 15  2  0
 15 16  1  0
 16 17  2  0
 17 18  1  0
 17 19  1  0
 19 20  1  0
 19 21  2  0
 21 22  1  0
 22 23  2  0
 23 24  1  0
 24 25  1  0
 25 26  1  0
 26 27  1  0
 18  2  1  0
 15  5  1  0
 14  9  1  0
 23 16  1  0
 27 22  1  0
  3 28  1  0
  8 29  1  0
 11 30  1  0
 11 31  1  0
 12 32  1  0
 12 33  1  0
 13 34  1  0
 13 35  1  0
 14 36  1  0
 14 37  1  0
 21 38  1  0
 24 39  1  0
 24 40  1  0
 25 41  1  0
 25 42  1  0
 26 43  1  0
 26 44  1  0
 27 45  1  0
 27 46  1  0
M  END
