
     RDKit          3D

 66 72  0  0  0  0  0  0  0  0999 V2000
   -0.9051    3.4284   -1.3275 O   0  0  0  0  0  0  0  0  0  0  0  0
   -0.2361    2.5797   -0.2935 P   0  0  0  0  0  5  0  0  0  0  0  0
    0.4344    3.4480    0.8831 O   0  0  0  0  0  0  0  0  0  0  0  0
    0.9800    1.6691   -0.8260 O   0  0  0  0  0  0  0  0  0  0  0  0
    1.4884    0.6553   -0.0424 C   0  0  0  0  0  0  0  0  0  0  0  0
    2.8510    0.7725    0.3144 C   0  0  0  0  0  0  0  0  0  0  0  0
    3.6712    1.9246   -0.1120 C   0  0  0  0  0  0  0  0  0  0  0  0
    4.2269    1.9918   -1.4075 C   0  0  0  0  0  0  0  0  0  0  0  0
    4.0177    0.7107   -2.5560 Cl  0  0  0  0  0  0  0  0  0  0  0  0
    4.9885    3.0912   -1.8160 C   0  0  0  0  0  0  0  0  0  0  0  0
    5.2111    4.1416   -0.9335 C   0  0  0  0  0  0  0  0  0  0  0  0
    6.1516    5.4920   -1.4334 Cl  0  0  0  0  0  0  0  0  0  0  0  0
    4.6865    4.1053    0.3531 C   0  0  0  0  0  0  0  0  0  0  0  0
    3.9258    3.0051    0.7594 C   0  0  0  0  0  0  0  0  0  0  0  0
    3.3091    3.0279    2.3808 Cl  0  0  0  0  0  0  0  0  0  0  0  0
    3.4263   -0.2383    1.0867 C   0  0  0  0  0  0  0  0  0  0  0  0
    2.6556   -1.3120    1.5259 C   0  0  0  0  0  0  0  0  0  0  0  0
    1.2954   -1.4218    1.1477 C   0  0  0  0  0  0  0  0  0  0  0  0
    0.5388   -2.5800    1.7806 C   0  0  0  0  0  0  0  0  0  0  0  0
    0.8646   -2.6862    3.2720 C   0  0  0  0  0  0  0  0  0  0  0  0
    2.3655   -2.7320    3.5767 C   0  0  0  0  0  0  0  0  0  0  0  0
    3.2594   -2.3949    2.3842 C   0  0  0  0  0  0  0  0  0  0  0  0
    0.6816   -0.4661    0.2857 C   0  0  0  0  0  0  0  0  0  0  0  0
   -0.6615   -0.6062   -0.2303 C   0  0  0  0  0  0  0  0  0  0  0  0
   -1.6076    0.4365   -0.0827 C   0  0  0  0  0  0  0  0  0  0  0  0
   -1.2138    1.6037    0.5317 O   0  0  0  0  0  0  0  0  0  0  0  0
   -2.9650    0.3349   -0.4558 C   0  0  0  0  0  0  0  0  0  0  0  0
   -3.9125    1.4487   -0.2499 C   0  0  0  0  0  0  0  0  0  0  0  0
   -4.4526    1.7301    1.0232 C   0  0  0  0  0  0  0  0  0  0  0  0
   -4.0816    0.7552    2.4086 Cl  0  0  0  0  0  0  0  0  0  0  0  0
   -5.3282    2.8024    1.2221 C   0  0  0  0  0  0  0  0  0  0  0  0
   -5.6817    3.6118    0.1491 C   0  0  0  0  0  0  0  0  0  0  0  0
   -6.7604    4.9291    0.3937 Cl  0  0  0  0  0  0  0  0  0  0  0  0
   -5.1778    3.3586   -1.1206 C   0  0  0  0  0  0  0  0  0  0  0  0
   -4.3041    2.2846   -1.3184 C   0  0  0  0  0  0  0  0  0  0  0  0
   -3.7376    2.0249   -2.9365 Cl  0  0  0  0  0  0  0  0  0  0  0  0
   -3.4012   -0.8566   -1.0385 C   0  0  0  0  0  0  0  0  0  0  0  0
   -2.4993   -1.8894   -1.2888 C   0  0  0  0  0  0  0  0  0  0  0  0
   -1.1402   -1.7647   -0.9100 C   0  0  0  0  0  0  0  0  0  0  0  0
   -0.2370   -2.9065   -1.3477 C   0  0  0  0  0  0  0  0  0  0  0  0
   -0.5283   -3.2993   -2.7978 C   0  0  0  0  0  0  0  0  0  0  0  0
   -2.0083   -3.5795   -3.0793 C   0  0  0  0  0  0  0  0  0  0  0  0
   -2.9525   -3.1656   -1.9513 C   0  0  0  0  0  0  0  0  0  0  0  0
    0.8142    2.8967    1.5909 H   0  0  0  0  0  0  0  0  0  0  0  0
    5.4056    3.1252   -2.8197 H   0  0  0  0  0  0  0  0  0  0  0  0
    4.8663    4.9309    1.0376 H   0  0  0  0  0  0  0  0  0  0  0  0
    4.4767   -0.1776    1.3666 H   0  0  0  0  0  0  0  0  0  0  0  0
    0.8185   -3.5104    1.2735 H   0  0  0  0  0  0  0  0  0  0  0  0
   -0.5443   -2.4579    1.6891 H   0  0  0  0  0  0  0  0  0  0  0  0
    0.3732   -3.5689    3.6978 H   0  0  0  0  0  0  0  0  0  0  0  0
    0.4328   -1.8190    3.7900 H   0  0  0  0  0  0  0  0  0  0  0  0
    2.6398   -3.7222    3.9600 H   0  0  0  0  0  0  0  0  0  0  0  0
    2.5711   -2.0281    4.3939 H   0  0  0  0  0  0  0  0  0  0  0  0
    3.4024   -3.2857    1.7594 H   0  0  0  0  0  0  0  0  0  0  0  0
    4.2515   -2.1044    2.7495 H   0  0  0  0  0  0  0  0  0  0  0  0
   -5.7319    3.0033    2.2114 H   0  0  0  0  0  0  0  0  0  0  0  0
   -5.4585    3.9950   -1.9564 H   0  0  0  0  0  0  0  0  0  0  0  0
   -4.4442   -0.9680   -1.3293 H   0  0  0  0  0  0  0  0  0  0  0  0
   -0.4041   -3.7674   -0.6905 H   0  0  0  0  0  0  0  0  0  0  0  0
    0.8210   -2.6355   -1.2859 H   0  0  0  0  0  0  0  0  0  0  0  0
    0.0732   -4.1733   -3.0740 H   0  0  0  0  0  0  0  0  0  0  0  0
   -0.1994   -2.4842   -3.4568 H   0  0  0  0  0  0  0  0  0  0  0  0
   -2.2888   -3.0494   -3.9989 H   0  0  0  0  0  0  0  0  0  0  0  0
   -2.1533   -4.6453   -3.2936 H   0  0  0  0  0  0  0  0  0  0  0  0
   -3.9686   -3.0662   -2.3508 H   0  0  0  0  0  0  0  0  0  0  0  0
   -2.9904   -3.9522   -1.1869 H   0  0  0  0  0  0  0  0  0  0  0  0
  1  2  2  0
  2  3  1  0
  2  4  1  0
  4  5  1  0
  5  6  2  0
  6  7  1  0
  7  8  2  0
  8  9  1  0
  8 10  1  0
 10 11  2  0
 11 12  1  0
 11 13  1  0
 13 14  2  0
 14 15  1  0
  6 16  1  0
 16 17  2  0
 17 18  1  0
 18 19  1  0
 19 20  1  0
 20 21  1  0
 21 22  1  0
 18 23  2  0
 23 24  1  0
 24 25  2  0
 25 26  1  0
 25 27  1  0
 27 28  1  0
 28 29  2  0
 29 30  1  0
 29 31  1  0
 31 32  2  0
 32 33  1  0
 32 34  1  0
 34 35  2  0
 35 36  1  0
 27 37  2  0
 37 38  1  0
 38 39  2  0
 39 40  1  0
 40 41  1  0
 41 42  1  0
 42 43  1  0
 26  2  1  0
 23  5  1  0
 14  7  1  0
 22 17  1  0
 39 24  1  0
 35 28  1  0
 43 38  1  0
  3 44  1  0
 10 45  1  0
 13 46  1  0
 16 47  1  0
 19 48  1  0
 19 49  1  0
 20 50  1  0
 20 51  1  0
 21 52  1  0
 21 53  1  0
 22 54  1  0
 22 55  1  0
 31 56  1  0
 34 57  1  0
 37 58  1  0
 40 59  1  0
 40 60  1  0
 41 61  1  0
 41 62  1  0
 42 63  1  0
 42 64  1  0
 43 65  1  0
 43 66  1  0
M  END
