
     RDKit          3D

 80 86  0  0  0  0  0  0  0  0999 V2000
   -0.8338    2.1578    2.6026 O   0  0  0  0  0  0  0  0  0  0  0  0
   -0.2516    0.7793    2.5215 P   0  0  0  0  0  5  0  0  0  0  0  0
    0.3676    0.3897    3.9580 O   0  0  0  0  0  0  0  0  0  0  0  0
    0.9922    0.6333    1.5121 O   0  0  0  0  0  0  0  0  0  0  0  0
    1.5093   -0.6139    1.2672 C   0  0  0  0  0  0  0  0  0  0  0  0
    2.8414   -0.8384    1.6495 C   0  0  0  0  0  0  0  0  0  0  0  0
    3.6970    0.2534    2.2537 C   0  0  0  0  0  0  0  0  0  0  0  0
    4.3458    1.1538    1.2253 C   0  0  0  0  0  0  0  0  0  0  0  0
    3.7385    2.3620    0.8522 C   0  0  0  0  0  0  0  0  0  0  0  0
    4.3205    3.1881   -0.1163 C   0  0  0  0  0  0  0  0  0  0  0  0
    5.5181    2.8162   -0.7274 C   0  0  0  0  0  0  0  0  0  0  0  0
    6.1891    3.5330   -1.6800 O   0  0  0  0  0  0  0  0  0  0  0  0
    5.5241    4.6677   -2.2168 C   0  0  0  0  0  0  0  0  0  0  0  0
    6.1301    1.6154   -0.3554 C   0  0  0  0  0  0  0  0  0  0  0  0
    5.5487    0.7855    0.6076 C   0  0  0  0  0  0  0  0  0  0  0  0
    3.3863   -2.1052    1.4366 C   0  0  0  0  0  0  0  0  0  0  0  0
    2.6169   -3.1406    0.8913 C   0  0  0  0  0  0  0  0  0  0  0  0
    1.2763   -2.8943    0.5107 C   0  0  0  0  0  0  0  0  0  0  0  0
    0.4161   -4.0599    0.0375 C   0  0  0  0  0  0  0  0  0  0  0  0
    0.9675   -5.4319    0.4224 C   0  0  0  0  0  0  0  0  0  0  0  0
    2.4296   -5.5273    0.0219 C   0  0  0  0  0  0  0  0  0  0  0  0
    3.2514   -4.5103    0.8038 C   0  0  0  0  0  0  0  0  0  0  0  0
    0.7140   -1.5792    0.6115 C   0  0  0  0  0  0  0  0  0  0  0  0
   -0.5829   -1.2322    0.0889 C   0  0  0  0  0  0  0  0  0  0  0  0
   -1.6018   -0.7258    0.9379 C   0  0  0  0  0  0  0  0  0  0  0  0
   -1.2965   -0.4166    2.2423 O   0  0  0  0  0  0  0  0  0  0  0  0
   -2.9409   -0.5942    0.5359 C   0  0  0  0  0  0  0  0  0  0  0  0
   -4.0505   -0.2022    1.4901 C   0  0  0  0  0  0  0  0  0  0  0  0
   -4.5695    1.2096    1.3201 C   0  0  0  0  0  0  0  0  0  0  0  0
   -5.5399    1.5165    0.3540 C   0  0  0  0  0  0  0  0  0  0  0  0
   -6.0149    2.8266    0.2003 C   0  0  0  0  0  0  0  0  0  0  0  0
   -5.5276    3.8511    1.0131 C   0  0  0  0  0  0  0  0  0  0  0  0
   -5.9065    5.1635    0.9713 O   0  0  0  0  0  0  0  0  0  0  0  0
   -6.7397    5.5560   -0.1146 C   0  0  0  0  0  0  0  0  0  0  0  0
   -4.5721    3.5491    1.9830 C   0  0  0  0  0  0  0  0  0  0  0  0
   -4.0963    2.2433    2.1370 C   0  0  0  0  0  0  0  0  0  0  0  0
   -3.2532   -0.8735   -0.7973 C   0  0  0  0  0  0  0  0  0  0  0  0
   -2.2613   -1.2170   -1.7220 C   0  0  0  0  0  0  0  0  0  0  0  0
   -0.9276   -1.3955   -1.2890 C   0  0  0  0  0  0  0  0  0  0  0  0
    0.1659   -1.5409   -2.3428 C   0  0  0  0  0  0  0  0  0  0  0  0
   -0.3276   -2.0770   -3.6836 C   0  0  0  0  0  0  0  0  0  0  0  0
   -1.5366   -1.2848   -4.1516 C   0  0  0  0  0  0  0  0  0  0  0  0
   -2.6784   -1.4433   -3.1565 C   0  0  0  0  0  0  0  0  0  0  0  0
    0.0168    1.0006    4.6318 H   0  0  0  0  0  0  0  0  0  0  0  0
    4.4806   -0.1941    2.8807 H   0  0  0  0  0  0  0  0  0  0  0  0
    3.1030    0.8518    2.9565 H   0  0  0  0  0  0  0  0  0  0  0  0
    2.7999    2.6710    1.3109 H   0  0  0  0  0  0  0  0  0  0  0  0
    3.8139    4.1147   -0.3656 H   0  0  0  0  0  0  0  0  0  0  0  0
    6.1574    5.0882   -3.0063 H   0  0  0  0  0  0  0  0  0  0  0  0
    5.3870    5.4396   -1.4531 H   0  0  0  0  0  0  0  0  0  0  0  0
    4.5699    4.3865   -2.6738 H   0  0  0  0  0  0  0  0  0  0  0  0
    7.0661    1.3205   -0.8253 H   0  0  0  0  0  0  0  0  0  0  0  0
    6.0401   -0.1496    0.8663 H   0  0  0  0  0  0  0  0  0  0  0  0
    4.4170   -2.3020    1.7279 H   0  0  0  0  0  0  0  0  0  0  0  0
    0.3266   -4.0254   -1.0508 H   0  0  0  0  0  0  0  0  0  0  0  0
   -0.5898   -3.9765    0.4623 H   0  0  0  0  0  0  0  0  0  0  0  0
    0.3865   -6.2162   -0.0772 H   0  0  0  0  0  0  0  0  0  0  0  0
    0.8632   -5.5930    1.5032 H   0  0  0  0  0  0  0  0  0  0  0  0
    2.8133   -6.5360    0.2116 H   0  0  0  0  0  0  0  0  0  0  0  0
    2.5306   -5.3406   -1.0546 H   0  0  0  0  0  0  0  0  0  0  0  0
    4.2435   -4.4292    0.3423 H   0  0  0  0  0  0  0  0  0  0  0  0
    3.3922   -4.8814    1.8280 H   0  0  0  0  0  0  0  0  0  0  0  0
   -3.7352   -0.3523    2.5318 H   0  0  0  0  0  0  0  0  0  0  0  0
   -4.8883   -0.9044    1.3641 H   0  0  0  0  0  0  0  0  0  0  0  0
   -5.9420    0.7369   -0.2901 H   0  0  0  0  0  0  0  0  0  0  0  0
   -6.7662    3.0115   -0.5605 H   0  0  0  0  0  0  0  0  0  0  0  0
   -6.2661    5.3400   -1.0797 H   0  0  0  0  0  0  0  0  0  0  0  0
   -7.7250    5.0814   -0.0462 H   0  0  0  0  0  0  0  0  0  0  0  0
   -6.8872    6.6396   -0.0483 H   0  0  0  0  0  0  0  0  0  0  0  0
   -4.1853    4.3389    2.6233 H   0  0  0  0  0  0  0  0  0  0  0  0
   -3.3526    2.0456    2.9051 H   0  0  0  0  0  0  0  0  0  0  0  0
   -4.2831   -0.7921   -1.1374 H   0  0  0  0  0  0  0  0  0  0  0  0
    0.5988   -0.5453   -2.4970 H   0  0  0  0  0  0  0  0  0  0  0  0
    0.9844   -2.1826   -2.0148 H   0  0  0  0  0  0  0  0  0  0  0  0
   -0.5885   -3.1388   -3.5911 H   0  0  0  0  0  0  0  0  0  0  0  0
    0.4762   -2.0039   -4.4261 H   0  0  0  0  0  0  0  0  0  0  0  0
   -1.2690   -0.2252   -4.2510 H   0  0  0  0  0  0  0  0  0  0  0  0
   -1.8580   -1.6270   -5.1409 H   0  0  0  0  0  0  0  0  0  0  0  0
   -3.0925   -2.4572   -3.2307 H   0  0  0  0  0  0  0  0  0  0  0  0
   -3.4756   -0.7411   -3.4315 H   0  0  0  0  0  0  0  0  0  0  0  0
  1  2  2  0
  2  3  1  0
  2  4  1  0
  4  5  1  0
  5  6  2  0
  6  7  1  0
  7  8  1  0
  8  9  2  0
  9 10  1  0
 10 11  2  0
 11 12  1  0
 12 13  1  0
 11 14  1  0
 14 15  2  0
  6 16  1  0
 16 17  2  0
 17 18  1  0
 18 19  1  0
 19 20  1  0
 20 21  1  0
 21 22  1  0
 18 23  2  0
 23 24  1  0
 24 25  2  0
 25 26  1  0
 25 27  1  0
 27 28  1  0
 28 29  1  0
 29 30  2  0
 30 31  1  0
 31 32  2  0
 32 33  1  0
 33 34  1  0
 32 35  1  0
 35 36  2  0
 27 37  2  0
 37 38  1  0
 38 39  2  0
 39 40  1  0
 40 41  1  0
 41 42  1  0
 42 43  1  0
 26  2  1  0
 23  5  1  0
 15  8  1  0
 22 17  1  0
 39 24  1  0
 36 29  1  0
 43 38  1  0
  3 44  1  0
  7 45  1  0
  7 46  1  0
  9 47  1  0
 10 48  1  0
 13 49  1  0
 13 50  1  0
 13 51  1  0
 14 52  1  0
 15 53  1  0
 16 54  1  0
 19 55  1  0
 19 56  1  0
 20 57  1  0
 20 58  1  0
 21 59  1  0
 21 60  1  0
 22 61  1  0
 22 62  1  0
 28 63  1  0
 28 64  1  0
 30 65  1  0
 31 66  1  0
 34 67  1  0
 34 68  1  0
 34 69  1  0
 35 70  1  0
 36 71  1  0
 37 72  1  0
 40 73  1  0
 40 74  1  0
 41 75  1  0
 41 76  1  0
 42 77  1  0
 42 78  1  0
 43 79  1  0
 43 80  1  0
M  END
