
     RDKit          3D

 82 92  0  0  0  0  0  0  0  0999 V2000
   -0.4998    0.5322    2.7469 O   0  0  0  0  0  0  0  0  0  0  0  0
    0.0622   -0.1824    1.5597 P   0  0  0  0  0  5  0  0  0  0  0  0
    0.9458   -1.4495    2.0035 O   0  0  0  0  0  0  0  0  0  0  0  0
   -0.9959   -0.8262    0.5314 O   0  0  0  0  0  0  0  0  0  0  0  0
   -1.5766    0.0040   -0.3980 C   0  0  0  0  0  0  0  0  0  0  0  0
   -2.9595    0.2269   -0.2770 C   0  0  0  0  0  0  0  0  0  0  0  0
   -3.7774   -0.4029    0.7887 C   0  0  0  0  0  0  0  0  0  0  0  0
   -4.0996    0.3349    1.9734 C   0  0  0  0  0  0  0  0  0  0  0  0
   -3.6540    1.6561    2.2290 C   0  0  0  0  0  0  0  0  0  0  0  0
   -3.9929    2.3409    3.3983 C   0  0  0  0  0  0  0  0  0  0  0  0
   -4.7907    1.7259    4.3509 C   0  0  0  0  0  0  0  0  0  0  0  0
   -5.2435    0.4268    4.1331 C   0  0  0  0  0  0  0  0  0  0  0  0
   -4.9068   -0.2733    2.9612 C   0  0  0  0  0  0  0  0  0  0  0  0
   -5.3727   -1.5797    2.7734 C   0  0  0  0  0  0  0  0  0  0  0  0
   -5.0666   -2.3157    1.6232 C   0  0  0  0  0  0  0  0  0  0  0  0
   -4.2661   -1.7392    0.6117 C   0  0  0  0  0  0  0  0  0  0  0  0
   -4.0010   -2.5355   -0.5319 C   0  0  0  0  0  0  0  0  0  0  0  0
   -4.4977   -3.8345   -0.6647 C   0  0  0  0  0  0  0  0  0  0  0  0
   -5.2788   -4.3795    0.3427 C   0  0  0  0  0  0  0  0  0  0  0  0
   -5.5608   -3.6241    1.4785 C   0  0  0  0  0  0  0  0  0  0  0  0
   -3.5781    1.0523   -1.2185 C   0  0  0  0  0  0  0  0  0  0  0  0
   -2.8468    1.6692   -2.2356 C   0  0  0  0  0  0  0  0  0  0  0  0
   -1.4530    1.4247   -2.3608 C   0  0  0  0  0  0  0  0  0  0  0  0
   -0.7776    2.1617   -3.3674 C   0  0  0  0  0  0  0  0  0  0  0  0
   -1.4409    3.0328   -4.2364 C   0  0  0  0  0  0  0  0  0  0  0  0
   -2.8092    3.2138   -4.1188 C   0  0  0  0  0  0  0  0  0  0  0  0
   -3.5056    2.5404   -3.1195 C   0  0  0  0  0  0  0  0  0  0  0  0
   -0.7908    0.5094   -1.4628 C   0  0  0  0  0  0  0  0  0  0  0  0
    0.5868    0.0845   -1.6204 C   0  0  0  0  0  0  0  0  0  0  0  0
    1.5054    0.2148   -0.5503 C   0  0  0  0  0  0  0  0  0  0  0  0
    1.0773    0.6926    0.6668 O   0  0  0  0  0  0  0  0  0  0  0  0
    2.8882   -0.0179   -0.6781 C   0  0  0  0  0  0  0  0  0  0  0  0
    3.8360    0.2198    0.4396 C   0  0  0  0  0  0  0  0  0  0  0  0
    4.2658   -0.8748    1.2584 C   0  0  0  0  0  0  0  0  0  0  0  0
    3.8447   -2.2159    1.0731 C   0  0  0  0  0  0  0  0  0  0  0  0
    4.2779   -3.2522    1.9034 C   0  0  0  0  0  0  0  0  0  0  0  0
    5.1515   -2.9813    2.9452 C   0  0  0  0  0  0  0  0  0  0  0  0
    5.5888   -1.6754    3.1532 C   0  0  0  0  0  0  0  0  0  0  0  0
    5.1578   -0.6239    2.3252 C   0  0  0  0  0  0  0  0  0  0  0  0
    5.6133    0.6781    2.5610 C   0  0  0  0  0  0  0  0  0  0  0  0
    5.2129    1.7573    1.7649 C   0  0  0  0  0  0  0  0  0  0  0  0
    4.3191    1.5458    0.6911 C   0  0  0  0  0  0  0  0  0  0  0  0
    3.9572    2.6804   -0.0794 C   0  0  0  0  0  0  0  0  0  0  0  0
    4.4500    3.9569    0.2011 C   0  0  0  0  0  0  0  0  0  0  0  0
    5.3235    4.1401    1.2619 C   0  0  0  0  0  0  0  0  0  0  0  0
    5.7025    3.0469    2.0375 C   0  0  0  0  0  0  0  0  0  0  0  0
    3.3717   -0.4646   -1.9091 C   0  0  0  0  0  0  0  0  0  0  0  0
    2.5099   -0.7113   -2.9794 C   0  0  0  0  0  0  0  0  0  0  0  0
    1.1168   -0.4629   -2.8464 C   0  0  0  0  0  0  0  0  0  0  0  0
    0.3097   -0.8291   -3.9544 C   0  0  0  0  0  0  0  0  0  0  0  0
    0.8443   -1.3421   -5.1396 C   0  0  0  0  0  0  0  0  0  0  0  0
    2.2123   -1.5270   -5.2554 C   0  0  0  0  0  0  0  0  0  0  0  0
    3.0381   -1.2193   -4.1784 C   0  0  0  0  0  0  0  0  0  0  0  0
    1.4901   -1.2324    2.7827 H   0  0  0  0  0  0  0  0  0  0  0  0
   -3.0102    2.1707    1.5189 H   0  0  0  0  0  0  0  0  0  0  0  0
   -3.6191    3.3477    3.5632 H   0  0  0  0  0  0  0  0  0  0  0  0
   -5.0531    2.2503    5.2652 H   0  0  0  0  0  0  0  0  0  0  0  0
   -5.8632   -0.0415    4.8949 H   0  0  0  0  0  0  0  0  0  0  0  0
   -5.9906   -2.0365    3.5454 H   0  0  0  0  0  0  0  0  0  0  0  0
   -3.3898   -2.1483   -1.3445 H   0  0  0  0  0  0  0  0  0  0  0  0
   -4.2685   -4.4144   -1.5547 H   0  0  0  0  0  0  0  0  0  0  0  0
   -5.6679   -5.3895    0.2486 H   0  0  0  0  0  0  0  0  0  0  0  0
   -6.1756   -4.0685    2.2586 H   0  0  0  0  0  0  0  0  0  0  0  0
   -4.6501    1.2299   -1.1334 H   0  0  0  0  0  0  0  0  0  0  0  0
    0.3013    2.0757   -3.4844 H   0  0  0  0  0  0  0  0  0  0  0  0
   -0.8809    3.5688   -4.9984 H   0  0  0  0  0  0  0  0  0  0  0  0
   -3.3332    3.8890   -4.7899 H   0  0  0  0  0  0  0  0  0  0  0  0
   -4.5765    2.7135   -3.0268 H   0  0  0  0  0  0  0  0  0  0  0  0
    3.1484   -2.4728    0.2763 H   0  0  0  0  0  0  0  0  0  0  0  0
    3.9252   -4.2661    1.7322 H   0  0  0  0  0  0  0  0  0  0  0  0
    5.4928   -3.7821    3.5958 H   0  0  0  0  0  0  0  0  0  0  0  0
    6.2762   -1.4827    3.9749 H   0  0  0  0  0  0  0  0  0  0  0  0
    6.3017    0.8570    3.3863 H   0  0  0  0  0  0  0  0  0  0  0  0
    3.2733    2.5826   -0.9201 H   0  0  0  0  0  0  0  0  0  0  0  0
    4.1464    4.8025   -0.4104 H   0  0  0  0  0  0  0  0  0  0  0  0
    5.7095    5.1303    1.4880 H   0  0  0  0  0  0  0  0  0  0  0  0
    6.3895    3.2116    2.8653 H   0  0  0  0  0  0  0  0  0  0  0  0
    4.4412   -0.6440   -2.0180 H   0  0  0  0  0  0  0  0  0  0  0  0
   -0.7734   -0.7305   -3.9050 H   0  0  0  0  0  0  0  0  0  0  0  0
    0.1850   -1.5999   -5.9644 H   0  0  0  0  0  0  0  0  0  0  0  0
    2.6360   -1.9256   -6.1731 H   0  0  0  0  0  0  0  0  0  0  0  0
    4.1079   -1.3943   -4.2793 H   0  0  0  0  0  0  0  0  0  0  0  0
  1  2  2  0
  2  3  1  0
  2  4  1  0
  4  5  1  0
  5  6  2  0
  6  7  1  0
  7  8  1  0
  8  9  2  0
  9 10  1  0
 10 11  2  0
 11 12  1  0
  8 13  1  0
 13 14  1  0
 14 15  2  0
 15 16  1  0
 16 17  1  0
 17 18  2  0
 18 19  1  0
 19 20  2  0
  6 21  1  0
 21 22  2  0
 22 23  1  0
 23 24  1  0
 24 25  2  0
 25 26  1  0
 26 27  2  0
 23 28  2  0
 28 29  1  0
 29 30  2  0
 30 31  1  0
 30 32  1  0
 32 33  1  0
 33 34  1  0
 34 35  2  0
 35 36  1  0
 36 37  2  0
 37 38  1  0
 34 39  1  0
 39 40  1  0
 40 41  2  0
 41 42  1  0
 42 43  1  0
 43 44  2  0
 44 45  1  0
 45 46  2  0
 32 47  2  0
 47 48  1  0
 48 49  2  0
 49 50  1  0
 50 51  2  0
 51 52  1  0
 52 53  2  0
 31  2  1  0
 28  5  1  0
 16  7  2  0
 13 12  2  0
 20 15  1  0
 27 22  1  0
 49 29  1  0
 42 33  2  0
 39 38  2  0
 46 41  1  0
 53 48  1  0
  3 54  1  0
  9 55  1  0
 10 56  1  0
 11 57  1  0
 12 58  1  0
 14 59  1  0
 17 60  1  0
 18 61  1  0
 19 62  1  0
 20 63  1  0
 21 64  1  0
 24 65  1  0
 25 66  1  0
 26 67  1  0
 27 68  1  0
 35 69  1  0
 36 70  1  0
 37 71  1  0
 38 72  1  0
 40 73  1  0
 43 74  1  0
 44 75  1  0
 45 76  1  0
 46 77  1  0
 47 78  1  0
 50 79  1  0
 51 80  1  0
 52 81  1  0
 53 82  1  0
M  END
