
     RDKit          3D

106112  0  0  0  0  0  0  0  0999 V2000
   -0.5074    1.3208   -1.2928 O   0  0  0  0  0  0  0  0  0  0  0  0
    0.0321    0.1565   -0.5229 P   0  0  0  0  0  5  0  0  0  0  0  0
    0.7993   -0.8829   -1.4831 O   0  0  0  0  0  0  0  0  0  0  0  0
   -1.0418   -0.7610    0.2504 O   0  0  0  0  0  0  0  0  0  0  0  0
   -1.4640   -0.3463    1.4955 C   0  0  0  0  0  0  0  0  0  0  0  0
   -2.8076    0.0493    1.6146 C   0  0  0  0  0  0  0  0  0  0  0  0
   -3.7423    0.0676    0.4800 C   0  0  0  0  0  0  0  0  0  0  0  0
   -3.7274    1.1227   -0.4431 C   0  0  0  0  0  0  0  0  0  0  0  0
   -4.6358    1.1829   -1.5110 C   0  0  0  0  0  0  0  0  0  0  0  0
   -4.6324    2.3338   -2.5358 C   0  0  0  0  0  0  0  0  0  0  0  0
   -6.0148    3.0245   -2.5579 C   0  0  0  0  0  0  0  0  0  0  0  0
   -3.5880    3.4364   -2.2423 C   0  0  0  0  0  0  0  0  0  0  0  0
   -4.3270    1.7707   -3.9405 C   0  0  0  0  0  0  0  0  0  0  0  0
   -5.5759    0.1350   -1.6266 C   0  0  0  0  0  0  0  0  0  0  0  0
   -5.6370   -0.9386   -0.7200 C   0  0  0  0  0  0  0  0  0  0  0  0
   -6.6812   -2.0641   -0.8318 C   0  0  0  0  0  0  0  0  0  0  0  0
   -7.5683   -2.0661    0.4327 C   0  0  0  0  0  0  0  0  0  0  0  0
   -7.6248   -1.9274   -2.0485 C   0  0  0  0  0  0  0  0  0  0  0  0
   -5.9715   -3.4298   -0.9578 C   0  0  0  0  0  0  0  0  0  0  0  0
   -4.7001   -0.9461    0.3297 C   0  0  0  0  0  0  0  0  0  0  0  0
   -3.2689    0.4342    2.8750 C   0  0  0  0  0  0  0  0  0  0  0  0
   -2.4234    0.4630    3.9849 C   0  0  0  0  0  0  0  0  0  0  0  0
   -1.0667    0.0643    3.8588 C   0  0  0  0  0  0  0  0  0  0  0  0
   -0.2617    0.2283    5.0158 C   0  0  0  0  0  0  0  0  0  0  0  0
   -0.7754    0.6844    6.2336 C   0  0  0  0  0  0  0  0  0  0  0  0
   -2.1157    1.0167    6.3358 C   0  0  0  0  0  0  0  0  0  0  0  0
   -2.9322    0.9136    5.2148 C   0  0  0  0  0  0  0  0  0  0  0  0
   -0.5646   -0.4202    2.5940 C   0  0  0  0  0  0  0  0  0  0  0  0
    0.7689   -0.9655    2.4178 C   0  0  0  0  0  0  0  0  0  0  0  0
    1.6188   -0.4460    1.4115 C   0  0  0  0  0  0  0  0  0  0  0  0
    1.1430    0.5400    0.5761 O   0  0  0  0  0  0  0  0  0  0  0  0
    2.9635   -0.8250    1.2354 C   0  0  0  0  0  0  0  0  0  0  0  0
    3.8186   -0.2416    0.1817 C   0  0  0  0  0  0  0  0  0  0  0  0
    4.0264    1.1457    0.1006 C   0  0  0  0  0  0  0  0  0  0  0  0
    4.8159    1.7222   -0.9056 C   0  0  0  0  0  0  0  0  0  0  0  0
    5.0276    3.2446   -1.0163 C   0  0  0  0  0  0  0  0  0  0  0  0
    4.6931    3.7283   -2.4465 C   0  0  0  0  0  0  0  0  0  0  0  0
    4.1476    4.0702   -0.0492 C   0  0  0  0  0  0  0  0  0  0  0  0
    6.5009    3.5775   -0.7018 C   0  0  0  0  0  0  0  0  0  0  0  0
    5.4356    0.8497   -1.8257 C   0  0  0  0  0  0  0  0  0  0  0  0
    5.2629   -0.5457   -1.7868 C   0  0  0  0  0  0  0  0  0  0  0  0
    5.9245   -1.4942   -2.8038 C   0  0  0  0  0  0  0  0  0  0  0  0
    6.8401   -0.7785   -3.8222 C   0  0  0  0  0  0  0  0  0  0  0  0
    6.7958   -2.5317   -2.0615 C   0  0  0  0  0  0  0  0  0  0  0  0
    4.8293   -2.2294   -3.6099 C   0  0  0  0  0  0  0  0  0  0  0  0
    4.4389   -1.0647   -0.7719 C   0  0  0  0  0  0  0  0  0  0  0  0
    3.4796   -1.7966    2.0965 C   0  0  0  0  0  0  0  0  0  0  0  0
    2.6861   -2.4056    3.0741 C   0  0  0  0  0  0  0  0  0  0  0  0
    1.3261   -2.0223    3.2288 C   0  0  0  0  0  0  0  0  0  0  0  0
    0.5714   -2.7654    4.1718 C   0  0  0  0  0  0  0  0  0  0  0  0
    1.1363   -3.7649    4.9682 C   0  0  0  0  0  0  0  0  0  0  0  0
    2.4787   -4.0792    4.8335 C   0  0  0  0  0  0  0  0  0  0  0  0
    3.2452   -3.4097    3.8845 C   0  0  0  0  0  0  0  0  0  0  0  0
    1.3264   -0.4005   -2.1458 H   0  0  0  0  0  0  0  0  0  0  0  0
   -2.9831    1.9035   -0.3084 H   0  0  0  0  0  0  0  0  0  0  0  0
   -6.0176    3.8756   -3.2498 H   0  0  0  0  0  0  0  0  0  0  0  0
   -6.8133    2.3492   -2.8833 H   0  0  0  0  0  0  0  0  0  0  0  0
   -6.2847    3.4024   -1.5642 H   0  0  0  0  0  0  0  0  0  0  0  0
   -3.7540    3.8978   -1.2611 H   0  0  0  0  0  0  0  0  0  0  0  0
   -3.6401    4.2382   -2.9888 H   0  0  0  0  0  0  0  0  0  0  0  0
   -2.5652    3.0432   -2.2664 H   0  0  0  0  0  0  0  0  0  0  0  0
   -4.2800    2.5722   -4.6855 H   0  0  0  0  0  0  0  0  0  0  0  0
   -3.3663    1.2436   -3.9532 H   0  0  0  0  0  0  0  0  0  0  0  0
   -5.0927    1.0635   -4.2781 H   0  0  0  0  0  0  0  0  0  0  0  0
   -6.2772    0.1736   -2.4564 H   0  0  0  0  0  0  0  0  0  0  0  0
   -8.3459   -2.8357    0.3688 H   0  0  0  0  0  0  0  0  0  0  0  0
   -8.0676   -1.0983    0.5671 H   0  0  0  0  0  0  0  0  0  0  0  0
   -6.9912   -2.2675    1.3431 H   0  0  0  0  0  0  0  0  0  0  0  0
   -7.0709   -1.9422   -2.9938 H   0  0  0  0  0  0  0  0  0  0  0  0
   -8.3440   -2.7542   -2.0843 H   0  0  0  0  0  0  0  0  0  0  0  0
   -8.2065   -0.9998   -2.0079 H   0  0  0  0  0  0  0  0  0  0  0  0
   -5.3745   -3.6708   -0.0721 H   0  0  0  0  0  0  0  0  0  0  0  0
   -6.6979   -4.2407   -1.0840 H   0  0  0  0  0  0  0  0  0  0  0  0
   -5.2992   -3.4483   -1.8233 H   0  0  0  0  0  0  0  0  0  0  0  0
   -4.7088   -1.7559    1.0570 H   0  0  0  0  0  0  0  0  0  0  0  0
   -4.3083    0.7459    2.9780 H   0  0  0  0  0  0  0  0  0  0  0  0
    0.8041    0.0099    4.9818 H   0  0  0  0  0  0  0  0  0  0  0  0
   -0.1208    0.7820    7.0954 H   0  0  0  0  0  0  0  0  0  0  0  0
   -2.5232    1.3737    7.2778 H   0  0  0  0  0  0  0  0  0  0  0  0
   -3.9768    1.2065    5.3050 H   0  0  0  0  0  0  0  0  0  0  0  0
    3.5460    1.7702    0.8497 H   0  0  0  0  0  0  0  0  0  0  0  0
    4.7731    4.8180   -2.5226 H   0  0  0  0  0  0  0  0  0  0  0  0
    5.3708    3.3118   -3.1979 H   0  0  0  0  0  0  0  0  0  0  0  0
    3.6728    3.4464   -2.7286 H   0  0  0  0  0  0  0  0  0  0  0  0
    3.0806    3.8758   -0.2102 H   0  0  0  0  0  0  0  0  0  0  0  0
    4.3055    5.1459   -0.1917 H   0  0  0  0  0  0  0  0  0  0  0  0
    4.3807    3.8518    0.9998 H   0  0  0  0  0  0  0  0  0  0  0  0
    7.1918    3.0853   -1.3945 H   0  0  0  0  0  0  0  0  0  0  0  0
    6.6832    4.6555   -0.7723 H   0  0  0  0  0  0  0  0  0  0  0  0
    6.7709    3.2590    0.3118 H   0  0  0  0  0  0  0  0  0  0  0  0
    6.0725    1.2881   -2.5888 H   0  0  0  0  0  0  0  0  0  0  0  0
    7.2918   -1.4951   -4.5184 H   0  0  0  0  0  0  0  0  0  0  0  0
    7.6620   -0.2504   -3.3242 H   0  0  0  0  0  0  0  0  0  0  0  0
    6.2832   -0.0519   -4.4260 H   0  0  0  0  0  0  0  0  0  0  0  0
    7.3127   -3.1908   -2.7692 H   0  0  0  0  0  0  0  0  0  0  0  0
    6.2042   -3.1747   -1.4009 H   0  0  0  0  0  0  0  0  0  0  0  0
    7.5580   -2.0373   -1.4479 H   0  0  0  0  0  0  0  0  0  0  0  0
    4.1759   -1.5161   -4.1278 H   0  0  0  0  0  0  0  0  0  0  0  0
    4.1931   -2.8527   -2.9714 H   0  0  0  0  0  0  0  0  0  0  0  0
    5.2711   -2.8881   -4.3666 H   0  0  0  0  0  0  0  0  0  0  0  0
    4.2654   -2.1392   -0.7175 H   0  0  0  0  0  0  0  0  0  0  0  0
    4.5232   -2.0921    1.9905 H   0  0  0  0  0  0  0  0  0  0  0  0
   -0.4939   -2.5786    4.2954 H   0  0  0  0  0  0  0  0  0  0  0  0
    0.5200   -4.2948    5.6892 H   0  0  0  0  0  0  0  0  0  0  0  0
    2.9243   -4.8565    5.4488 H   0  0  0  0  0  0  0  0  0  0  0  0
    4.2907   -3.6907    3.7721 H   0  0  0  0  0  0  0  0  0  0  0  0
  1  2  2  0
  2  3  1  0
  2  4  1  0
  4  5  1  0
  5  6  2  0
  6  7  1  0
  7  8  2  0
  8  9  1  0
  9 10  1  0
 10 11  1  0
 10 12  1  0
 10 13  1  0
  9 14  2  0
 14 15  1  0
 15 16  1  0
 16 17  1  0
 16 18  1  0
 16 19  1  0
 15 20  2  0
  6 21  1  0
 21 22  2  0
 22 23  1  0
 23 24  1  0
 24 25  2  0
 25 26  1  0
 26 27  2  0
 23 28  2  0
 28 29  1  0
 29 30  2  0
 30 31  1  0
 30 32  1  0
 32 33  1  0
 33 34  2  0
 34 35  1  0
 35 36  1  0
 36 37  1  0
 36 38  1  0
 36 39  1  0
 35 40  2  0
 40 41  1  0
 41 42  1  0
 42 43  1  0
 42 44  1  0
 42 45  1  0
 41 46  2  0
 32 47  2  0
 47 48  1  0
 48 49  2  0
 49 50  1  0
 50 51  2  0
 51 52  1  0
 52 53  2  0
 31  2  1  0
 28  5  1  0
 20  7  1  0
 27 22  1  0
 49 29  1  0
 46 33  1  0
 53 48  1  0
  3 54  1  0
  8 55  1  0
 11 56  1  0
 11 57  1  0
 11 58  1  0
 12 59  1  0
 12 60  1  0
 12 61  1  0
 13 62  1  0
 13 63  1  0
 13 64  1  0
 14 65  1  0
 17 66  1  0
 17 67  1  0
 17 68  1  0
 18 69  1  0
 18 70  1  0
 18 71  1  0
 19 72  1  0
 19 73  1  0
 19 74  1  0
 20 75  1  0
 21 76  1  0
 24 77  1  0
 25 78  1  0
 26 79  1  0
 27 80  1  0
 34 81  1  0
 37 82  1  0
 37 83  1  0
 37 84  1  0
 38 85  1  0
 38 86  1  0
 38 87  1  0
 39 88  1  0
 39 89  1  0
 39 90  1  0
 40 91  1  0
 43 92  1  0
 43 93  1  0
 43 94  1  0
 44 95  1  0
 44 96  1  0
 44 97  1  0
 45 98  1  0
 45 99  1  0
 45100  1  0
 46101  1  0
 47102  1  0
 50103  1  0
 51104  1  0
 52105  1  0
 53106  1  0
M  END
