
     RDKit          3D

 84 90  0  0  0  0  0  0  0  0999 V2000
   -1.4166    3.0474   -1.7933 O   0  0  0  0  0  0  0  0  0  0  0  0
   -0.9375    2.2631   -0.6081 P   0  0  0  0  0  5  0  0  0  0  0  0
   -0.8031    3.2219    0.6804 O   0  0  0  0  0  0  0  0  0  0  0  0
    0.5225    1.5971   -0.7563 O   0  0  0  0  0  0  0  0  0  0  0  0
    0.9289    0.6534    0.1616 C   0  0  0  0  0  0  0  0  0  0  0  0
    2.0685    0.9723    0.9263 C   0  0  0  0  0  0  0  0  0  0  0  0
    2.8231    2.2735    0.7495 C   0  0  0  0  0  0  0  0  0  0  0  0
    4.1393    2.1023    0.0200 C   0  0  0  0  0  0  0  0  0  0  0  0
    4.1564    1.7543   -1.3384 C   0  0  0  0  0  0  0  0  0  0  0  0
    5.3667    1.5528   -2.0194 C   0  0  0  0  0  0  0  0  0  0  0  0
    5.3784    1.1732   -3.4810 C   0  0  0  0  0  0  0  0  0  0  0  0
    6.3447    0.2587   -3.7784 F   0  0  0  0  0  0  0  0  0  0  0  0
    4.2054    0.6347   -3.9124 F   0  0  0  0  0  0  0  0  0  0  0  0
    5.6158    2.2446   -4.2862 F   0  0  0  0  0  0  0  0  0  0  0  0
    6.5729    1.7324   -1.3224 C   0  0  0  0  0  0  0  0  0  0  0  0
    6.5811    2.0951    0.0353 C   0  0  0  0  0  0  0  0  0  0  0  0
    7.8906    2.2552    0.7705 C   0  0  0  0  0  0  0  0  0  0  0  0
    7.7563    2.8166    2.0035 F   0  0  0  0  0  0  0  0  0  0  0  0
    8.7759    3.0398    0.0956 F   0  0  0  0  0  0  0  0  0  0  0  0
    8.5207    1.0655    0.9671 F   0  0  0  0  0  0  0  0  0  0  0  0
    5.3557    2.2726    0.6955 C   0  0  0  0  0  0  0  0  0  0  0  0
    2.5343    0.0369    1.8536 C   0  0  0  0  0  0  0  0  0  0  0  0
    1.8651   -1.1716    2.0308 C   0  0  0  0  0  0  0  0  0  0  0  0
    0.7307   -1.4850    1.2431 C   0  0  0  0  0  0  0  0  0  0  0  0
    0.0248   -2.7822    1.6034 C   0  0  0  0  0  0  0  0  0  0  0  0
   -0.0889   -2.9153    3.1245 C   0  0  0  0  0  0  0  0  0  0  0  0
    1.2679   -2.8545    3.8278 C   0  0  0  0  0  0  0  0  0  0  0  0
    2.3797   -2.1937    3.0128 C   0  0  0  0  0  0  0  0  0  0  0  0
    0.2589   -0.5982    0.2325 C   0  0  0  0  0  0  0  0  0  0  0  0
   -0.8246   -0.9289   -0.6663 C   0  0  0  0  0  0  0  0  0  0  0  0
   -1.9448   -0.0703   -0.8014 C   0  0  0  0  0  0  0  0  0  0  0  0
   -1.9414    1.1134   -0.1040 O   0  0  0  0  0  0  0  0  0  0  0  0
   -3.0955   -0.3869   -1.5520 C   0  0  0  0  0  0  0  0  0  0  0  0
   -4.2852    0.5459   -1.6763 C   0  0  0  0  0  0  0  0  0  0  0  0
   -4.8255    1.1041   -0.3757 C   0  0  0  0  0  0  0  0  0  0  0  0
   -4.8269    2.4897   -0.1574 C   0  0  0  0  0  0  0  0  0  0  0  0
   -5.2667    3.0301    1.0603 C   0  0  0  0  0  0  0  0  0  0  0  0
   -5.1761    4.5198    1.2839 C   0  0  0  0  0  0  0  0  0  0  0  0
   -5.6655    5.2408    0.2368 F   0  0  0  0  0  0  0  0  0  0  0  0
   -3.8825    4.9296    1.4465 F   0  0  0  0  0  0  0  0  0  0  0  0
   -5.8538    4.9489    2.3855 F   0  0  0  0  0  0  0  0  0  0  0  0
   -5.7288    2.1596    2.0634 C   0  0  0  0  0  0  0  0  0  0  0  0
   -5.7526    0.7689    1.8608 C   0  0  0  0  0  0  0  0  0  0  0  0
   -6.2392   -0.1736    2.9359 C   0  0  0  0  0  0  0  0  0  0  0  0
   -6.4922    0.4453    4.1230 F   0  0  0  0  0  0  0  0  0  0  0  0
   -7.3954   -0.8051    2.5894 F   0  0  0  0  0  0  0  0  0  0  0  0
   -5.3407   -1.1577    3.2152 F   0  0  0  0  0  0  0  0  0  0  0  0
   -5.3033    0.2551    0.6344 C   0  0  0  0  0  0  0  0  0  0  0  0
   -3.1101   -1.5884   -2.2630 C   0  0  0  0  0  0  0  0  0  0  0  0
   -2.0013   -2.4340   -2.2400 C   0  0  0  0  0  0  0  0  0  0  0  0
   -0.8622   -2.1080   -1.4640 C   0  0  0  0  0  0  0  0  0  0  0  0
    0.3216   -3.0517   -1.6112 C   0  0  0  0  0  0  0  0  0  0  0  0
    0.5588   -3.3905   -3.0858 C   0  0  0  0  0  0  0  0  0  0  0  0
   -0.6962   -3.8795   -3.8194 C   0  0  0  0  0  0  0  0  0  0  0  0
   -1.9936   -3.7201   -3.0268 C   0  0  0  0  0  0  0  0  0  0  0  0
   -1.3901    3.9989    0.5782 H   0  0  0  0  0  0  0  0  0  0  0  0
    2.2262    3.0243    0.2184 H   0  0  0  0  0  0  0  0  0  0  0  0
    2.9975    2.7053    1.7453 H   0  0  0  0  0  0  0  0  0  0  0  0
    3.2125    1.6228   -1.8683 H   0  0  0  0  0  0  0  0  0  0  0  0
    7.5191    1.5903   -1.8450 H   0  0  0  0  0  0  0  0  0  0  0  0
    5.3505    2.5390    1.7517 H   0  0  0  0  0  0  0  0  0  0  0  0
    3.4231    0.2506    2.4445 H   0  0  0  0  0  0  0  0  0  0  0  0
    0.5911   -3.6283    1.1964 H   0  0  0  0  0  0  0  0  0  0  0  0
   -0.9879   -2.8170    1.1954 H   0  0  0  0  0  0  0  0  0  0  0  0
   -0.5975   -3.8496    3.3856 H   0  0  0  0  0  0  0  0  0  0  0  0
   -0.7191   -2.1015    3.5089 H   0  0  0  0  0  0  0  0  0  0  0  0
    1.5919   -3.8684    4.1001 H   0  0  0  0  0  0  0  0  0  0  0  0
    1.1433   -2.3173    4.7778 H   0  0  0  0  0  0  0  0  0  0  0  0
    2.9167   -2.9618    2.4401 H   0  0  0  0  0  0  0  0  0  0  0  0
    3.1128   -1.7487    3.6976 H   0  0  0  0  0  0  0  0  0  0  0  0
   -5.1170    0.0332   -2.1722 H   0  0  0  0  0  0  0  0  0  0  0  0
   -3.9959    1.3605   -2.3499 H   0  0  0  0  0  0  0  0  0  0  0  0
   -4.4595    3.1609   -0.9373 H   0  0  0  0  0  0  0  0  0  0  0  0
   -6.0627    2.5666    3.0199 H   0  0  0  0  0  0  0  0  0  0  0  0
   -5.3028   -0.8235    0.4760 H   0  0  0  0  0  0  0  0  0  0  0  0
   -3.9788   -1.8594   -2.8614 H   0  0  0  0  0  0  0  0  0  0  0  0
    0.1210   -3.9699   -1.0473 H   0  0  0  0  0  0  0  0  0  0  0  0
    1.2444   -2.6182   -1.2224 H   0  0  0  0  0  0  0  0  0  0  0  0
    1.3553   -4.1391   -3.1667 H   0  0  0  0  0  0  0  0  0  0  0  0
    0.9302   -2.4933   -3.5972 H   0  0  0  0  0  0  0  0  0  0  0  0
   -0.5750   -4.9290   -4.0990 H   0  0  0  0  0  0  0  0  0  0  0  0
   -0.7857   -3.3267   -4.7628 H   0  0  0  0  0  0  0  0  0  0  0  0
   -2.1109   -4.5560   -2.3250 H   0  0  0  0  0  0  0  0  0  0  0  0
   -2.8474   -3.7642   -3.7129 H   0  0  0  0  0  0  0  0  0  0  0  0
  1  2  2  0
  2  3  1  0
  2  4  1  0
  4  5  1  0
  5  6  2  0
  6  7  1  0
  7  8  1  0
  8  9  2  0
  9 10  1  0
 10 11  1  0
 11 12  1  0
 11 13  1  0
 11 14  1  0
 10 15  2  0
 15 16  1  0
 16 17  1  0
 17 18  1  0
 17 19  1  0
 17 20  1  0
 16 21  2  0
  6 22  1  0
 22 23  2  0
 23 24  1  0
 24 25  1  0
 25 26  1  0
 26 27  1  0
 27 28  1  0
 24 29  2  0
 29 30  1  0
 30 31  2  0
 31 32  1  0
 31 33  1  0
 33 34  1  0
 34 35  1  0
 35 36  2  0
 36 37  1  0
 37 38  1  0
 38 39  1  0
 38 40  1  0
 38 41  1  0
 37 42  2  0
 42 43  1  0
 43 44  1  0
 44 45  1  0
 44 46  1  0
 44 47  1  0
 43 48  2  0
 33 49  2  0
 49 50  1  0
 50 51  2  0
 51 52  1  0
 52 53  1  0
 53 54  1  0
 54 55  1  0
 32  2  1  0
 29  5  1  0
 21  8  1  0
 28 23  1  0
 51 30  1  0
 48 35  1  0
 55 50  1  0
  3 56  1  0
  7 57  1  0
  7 58  1  0
  9 59  1  0
 15 60  1  0
 21 61  1  0
 22 62  1  0
 25 63  1  0
 25 64  1  0
 26 65  1  0
 26 66  1  0
 27 67  1  0
 27 68  1  0
 28 69  1  0
 28 70  1  0
 34 71  1  0
 34 72  1  0
 36 73  1  0
 42 74  1  0
 48 75  1  0
 49 76  1  0
 52 77  1  0
 52 78  1  0
 53 79  1  0
 53 80  1  0
 54 81  1  0
 54 82  1  0
 55 83  1  0
 55 84  1  0
M  END
