
     RDKit          3D

 38 42  0  0  0  0  0  0  0  0999 V2000
   -4.7535   -0.7758    0.0742 O   0  0  0  0  0  0  0  0  0  0  0  0
   -3.6434    0.1869    0.3558 P   0  0  0  0  0  5  0  0  0  0  0  0
   -4.2255    1.5571    0.9626 O   0  0  0  0  0  0  0  0  0  0  0  0
   -2.7919    0.6488   -0.9291 O   0  0  0  0  0  0  0  0  0  0  0  0
   -1.6237    1.3485   -0.7357 C   0  0  0  0  0  0  0  0  0  0  0  0
   -1.5773    2.6603   -1.2156 C   0  0  0  0  0  0  0  0  0  0  0  0
   -3.0703    3.4633   -2.0706 Br  0  0  0  0  0  0  0  0  0  0  0  0
   -0.4182    3.4097   -1.0796 C   0  0  0  0  0  0  0  0  0  0  0  0
    0.6970    2.8715   -0.4360 C   0  0  0  0  0  0  0  0  0  0  0  0
    0.6657    1.5365    0.0554 C   0  0  0  0  0  0  0  0  0  0  0  0
    1.8098    1.1127    0.7792 C   0  0  0  0  0  0  0  0  0  0  0  0
    2.9369    1.9218    0.9493 C   0  0  0  0  0  0  0  0  0  0  0  0
    2.9552    3.1999    0.4159 C   0  0  0  0  0  0  0  0  0  0  0  0
    1.8384    3.6734   -0.2660 C   0  0  0  0  0  0  0  0  0  0  0  0
   -0.5040    0.7112   -0.1443 C   0  0  0  0  0  0  0  0  0  0  0  0
   -0.5658   -0.6916    0.2179 C   0  0  0  0  0  0  0  0  0  0  0  0
   -1.6025   -1.1584    1.0605 C   0  0  0  0  0  0  0  0  0  0  0  0
   -2.5804   -0.2838    1.4693 O   0  0  0  0  0  0  0  0  0  0  0  0
   -1.6497   -2.4651    1.5506 C   0  0  0  0  0  0  0  0  0  0  0  0
   -3.0188   -3.0351    2.7339 Br  0  0  0  0  0  0  0  0  0  0  0  0
   -0.6771   -3.3802    1.1767 C   0  0  0  0  0  0  0  0  0  0  0  0
    0.3327   -3.0108    0.2859 C   0  0  0  0  0  0  0  0  0  0  0  0
    1.2733   -3.9737   -0.1170 C   0  0  0  0  0  0  0  0  0  0  0  0
    2.2658   -3.6663   -1.0429 C   0  0  0  0  0  0  0  0  0  0  0  0
    2.3199   -2.3938   -1.5880 C   0  0  0  0  0  0  0  0  0  0  0  0
    1.3942   -1.4257   -1.1889 C   0  0  0  0  0  0  0  0  0  0  0  0
    0.3924   -1.6813   -0.2184 C   0  0  0  0  0  0  0  0  0  0  0  0
   -5.1400    1.4150    1.2696 H   0  0  0  0  0  0  0  0  0  0  0  0
   -0.3925    4.4302   -1.4565 H   0  0  0  0  0  0  0  0  0  0  0  0
    1.8377    0.1288    1.2442 H   0  0  0  0  0  0  0  0  0  0  0  0
    3.7934    1.5481    1.5049 H   0  0  0  0  0  0  0  0  0  0  0  0
    3.8275    3.8351    0.5445 H   0  0  0  0  0  0  0  0  0  0  0  0
    1.8629    4.6900   -0.6552 H   0  0  0  0  0  0  0  0  0  0  0  0
   -0.7211   -4.3969    1.5621 H   0  0  0  0  0  0  0  0  0  0  0  0
    1.2323   -4.9867    0.2800 H   0  0  0  0  0  0  0  0  0  0  0  0
    2.9815   -4.4245   -1.3494 H   0  0  0  0  0  0  0  0  0  0  0  0
    3.0756   -2.1478   -2.3298 H   0  0  0  0  0  0  0  0  0  0  0  0
    1.4633   -0.4513   -1.6697 H   0  0  0  0  0  0  0  0  0  0  0  0
  1  2  2  0
  2  3  1  0
  2  4  1  0
  4  5  1  0
  5  6  2  0
  6  7  1  0
  6  8  1  0
  8  9  2  0
  9 10  1  0
 10 11  1  0
 11 12  2  0
 12 13  1  0
 13 14  2  0
 10 15  2  0
 15 16  1  0
 16 17  2  0
 17 18  1  0
 17 19  1  0
 19 20  1  0
 19 21  2  0
 21 22  1  0
 22 23  2  0
 23 24  1  0
 24 25  2  0
 25 26  1  0
 26 27  2  0
 18  2  1  0
 15  5  1  0
 14  9  1  0
 27 16  1  0
 27 22  1  0
  3 28  1  0
  8 29  1  0
 11 30  1  0
 12 31  1  0
 13 32  1  0
 14 33  1  0
 21 34  1  0
 23 35  1  0
 24 36  1  0
 25 37  1  0
 26 38  1  0
M  END
