
     RDKit          3D

 66 72  0  0  0  0  0  0  0  0999 V2000
   -0.5045    2.5730    1.0458 O   0  0  0  0  0  0  0  0  0  0  0  0
    0.0329    1.5320    0.1127 P   0  0  0  0  0  5  0  0  0  0  0  0
    0.8037    2.2300   -1.1150 O   0  0  0  0  0  0  0  0  0  0  0  0
    1.1189    0.5366    0.7585 O   0  0  0  0  0  0  0  0  0  0  0  0
    1.4943   -0.5873    0.0541 C   0  0  0  0  0  0  0  0  0  0  0  0
    2.8360   -0.6430   -0.3640 C   0  0  0  0  0  0  0  0  0  0  0  0
    3.7916    0.4423   -0.0920 C   0  0  0  0  0  0  0  0  0  0  0  0
    4.3057    1.2258   -1.1361 C   0  0  0  0  0  0  0  0  0  0  0  0
    5.2144    2.2617   -0.8842 C   0  0  0  0  0  0  0  0  0  0  0  0
    5.6244    2.5320    0.4205 C   0  0  0  0  0  0  0  0  0  0  0  0
    6.5005    3.5095    0.8035 O   0  0  0  0  0  0  0  0  0  0  0  0
    7.0043    4.3583   -0.2204 C   0  0  0  0  0  0  0  0  0  0  0  0
    5.1210    1.7563    1.4658 C   0  0  0  0  0  0  0  0  0  0  0  0
    4.2147    0.7221    1.2146 C   0  0  0  0  0  0  0  0  0  0  0  0
    3.2553   -1.7773   -1.0611 C   0  0  0  0  0  0  0  0  0  0  0  0
    2.3722   -2.8175   -1.3644 C   0  0  0  0  0  0  0  0  0  0  0  0
    1.0187   -2.7528   -0.9373 C   0  0  0  0  0  0  0  0  0  0  0  0
    0.1750   -3.8067   -1.3739 C   0  0  0  0  0  0  0  0  0  0  0  0
    0.6466   -4.8885   -2.1229 C   0  0  0  0  0  0  0  0  0  0  0  0
    1.9830   -4.9476   -2.4820 C   0  0  0  0  0  0  0  0  0  0  0  0
    2.8378   -3.9139   -2.1108 C   0  0  0  0  0  0  0  0  0  0  0  0
    0.5576   -1.6338   -0.1524 C   0  0  0  0  0  0  0  0  0  0  0  0
   -0.7756   -1.5474    0.4105 C   0  0  0  0  0  0  0  0  0  0  0  0
   -1.5900   -0.4240    0.1272 C   0  0  0  0  0  0  0  0  0  0  0  0
   -1.0669    0.6104   -0.6162 O   0  0  0  0  0  0  0  0  0  0  0  0
   -2.9318   -0.3059    0.5242 C   0  0  0  0  0  0  0  0  0  0  0  0
   -3.7511    0.8589    0.1666 C   0  0  0  0  0  0  0  0  0  0  0  0
   -4.0205    1.8633    1.1073 C   0  0  0  0  0  0  0  0  0  0  0  0
   -4.7944    2.9804    0.7687 C   0  0  0  0  0  0  0  0  0  0  0  0
   -5.3129    3.1093   -0.5193 C   0  0  0  0  0  0  0  0  0  0  0  0
   -6.0769    4.1454   -0.9806 O   0  0  0  0  0  0  0  0  0  0  0  0
   -6.3741    5.1842   -0.0550 C   0  0  0  0  0  0  0  0  0  0  0  0
   -5.0496    2.1131   -1.4618 C   0  0  0  0  0  0  0  0  0  0  0  0
   -4.2758    0.9988   -1.1251 C   0  0  0  0  0  0  0  0  0  0  0  0
   -3.4815   -1.3390    1.2833 C   0  0  0  0  0  0  0  0  0  0  0  0
   -2.7192   -2.4473    1.6657 C   0  0  0  0  0  0  0  0  0  0  0  0
   -1.3627   -2.5581    1.2557 C   0  0  0  0  0  0  0  0  0  0  0  0
   -0.6415   -3.6672    1.7670 C   0  0  0  0  0  0  0  0  0  0  0  0
   -1.2337   -4.6410    2.5757 C   0  0  0  0  0  0  0  0  0  0  0  0
   -2.5711   -4.5306    2.9202 C   0  0  0  0  0  0  0  0  0  0  0  0
   -3.3061   -3.4364    2.4732 C   0  0  0  0  0  0  0  0  0  0  0  0
    0.6688    3.1946   -1.0659 H   0  0  0  0  0  0  0  0  0  0  0  0
    3.9881    1.0405   -2.1609 H   0  0  0  0  0  0  0  0  0  0  0  0
    5.5785    2.8354   -1.7299 H   0  0  0  0  0  0  0  0  0  0  0  0
    7.6007    3.7922   -0.9440 H   0  0  0  0  0  0  0  0  0  0  0  0
    6.1949    4.9057   -0.7160 H   0  0  0  0  0  0  0  0  0  0  0  0
    7.6633    5.0944    0.2502 H   0  0  0  0  0  0  0  0  0  0  0  0
    5.4333    1.9594    2.4872 H   0  0  0  0  0  0  0  0  0  0  0  0
    3.8368    0.1357    2.0499 H   0  0  0  0  0  0  0  0  0  0  0  0
    4.2936   -1.8385   -1.3858 H   0  0  0  0  0  0  0  0  0  0  0  0
   -0.8889   -3.7944   -1.1434 H   0  0  0  0  0  0  0  0  0  0  0  0
   -0.0377   -5.6768   -2.4259 H   0  0  0  0  0  0  0  0  0  0  0  0
    2.3574   -5.7853   -3.0641 H   0  0  0  0  0  0  0  0  0  0  0  0
    3.8792   -3.9655   -2.4235 H   0  0  0  0  0  0  0  0  0  0  0  0
   -3.6102    1.7916    2.1133 H   0  0  0  0  0  0  0  0  0  0  0  0
   -4.9626    3.7309    1.5338 H   0  0  0  0  0  0  0  0  0  0  0  0
   -6.9844    5.9298   -0.5739 H   0  0  0  0  0  0  0  0  0  0  0  0
   -5.4606    5.6830    0.2884 H   0  0  0  0  0  0  0  0  0  0  0  0
   -6.9596    4.8045    0.7895 H   0  0  0  0  0  0  0  0  0  0  0  0
   -5.4463    2.2072   -2.4701 H   0  0  0  0  0  0  0  0  0  0  0  0
   -4.0793    0.2410   -1.8811 H   0  0  0  0  0  0  0  0  0  0  0  0
   -4.5219   -1.2617    1.5978 H   0  0  0  0  0  0  0  0  0  0  0  0
    0.4186   -3.7848    1.5480 H   0  0  0  0  0  0  0  0  0  0  0  0
   -0.6425   -5.4789    2.9363 H   0  0  0  0  0  0  0  0  0  0  0  0
   -3.0392   -5.2831    3.5490 H   0  0  0  0  0  0  0  0  0  0  0  0
   -4.3487   -3.3549    2.7754 H   0  0  0  0  0  0  0  0  0  0  0  0
  1  2  2  0
  2  3  1  0
  2  4  1  0
  4  5  1  0
  5  6  2  0
  6  7  1  0
  7  8  2  0
  8  9  1  0
  9 10  2  0
 10 11  1  0
 11 12  1  0
 10 13  1  0
 13 14  2  0
  6 15  1  0
 15 16  2  0
 16 17  1  0
 17 18  1  0
 18 19  2  0
 19 20  1  0
 20 21  2  0
 17 22  2  0
 22 23  1  0
 23 24  2  0
 24 25  1  0
 24 26  1  0
 26 27  1  0
 27 28  2  0
 28 29  1  0
 29 30  2  0
 30 31  1  0
 31 32  1  0
 30 33  1  0
 33 34  2  0
 26 35  2  0
 35 36  1  0
 36 37  2  0
 37 38  1  0
 38 39  2  0
 39 40  1  0
 40 41  2  0
 25  2  1  0
 22  5  1  0
 14  7  1  0
 21 16  1  0
 37 23  1  0
 34 27  1  0
 41 36  1  0
  3 42  1  0
  8 43  1  0
  9 44  1  0
 12 45  1  0
 12 46  1  0
 12 47  1  0
 13 48  1  0
 14 49  1  0
 15 50  1  0
 18 51  1  0
 19 52  1  0
 20 53  1  0
 21 54  1  0
 28 55  1  0
 29 56  1  0
 32 57  1  0
 32 58  1  0
 32 59  1  0
 33 60  1  0
 34 61  1  0
 35 62  1  0
 38 63  1  0
 39 64  1  0
 40 65  1  0
 41 66  1  0
M  END
