
     RDKit          3D

 86 98  0  0  0  0  0  0  0  0999 V2000
    0.9917    1.3048    1.4770 O   0  0  0  0  0  0  0  0  0  0  0  0
    0.1110    0.6036    0.4923 P   0  0  0  0  0  5  0  0  0  0  0  0
   -0.8472    1.5961   -0.3314 O   0  0  0  0  0  0  0  0  0  0  0  0
   -0.9250   -0.4292    1.1660 O   0  0  0  0  0  0  0  0  0  0  0  0
   -1.4963   -1.4485    0.4377 C   0  0  0  0  0  0  0  0  0  0  0  0
   -2.9018   -1.4420    0.3584 C   0  0  0  0  0  0  0  0  0  0  0  0
   -3.7203   -0.3643    0.9497 C   0  0  0  0  0  0  0  0  0  0  0  0
   -4.3716    0.6259    0.1573 C   0  0  0  0  0  0  0  0  0  0  0  0
   -4.2973    0.6685   -1.2534 C   0  0  0  0  0  0  0  0  0  0  0  0
   -4.9403    1.6626   -1.9967 C   0  0  0  0  0  0  0  0  0  0  0  0
   -5.6923    2.6526   -1.3601 C   0  0  0  0  0  0  0  0  0  0  0  0
   -6.3460    3.6524   -2.0947 C   0  0  0  0  0  0  0  0  0  0  0  0
   -7.0956    4.6341   -1.4489 C   0  0  0  0  0  0  0  0  0  0  0  0
   -7.2007    4.6279   -0.0599 C   0  0  0  0  0  0  0  0  0  0  0  0
   -6.5565    3.6412    0.7002 C   0  0  0  0  0  0  0  0  0  0  0  0
   -6.6548    3.6287    2.0951 C   0  0  0  0  0  0  0  0  0  0  0  0
   -6.0092    2.6451    2.8429 C   0  0  0  0  0  0  0  0  0  0  0  0
   -5.7941    2.6415    0.0485 C   0  0  0  0  0  0  0  0  0  0  0  0
   -5.1358    1.6341    0.8044 C   0  0  0  0  0  0  0  0  0  0  0  0
   -5.2519    1.6481    2.2150 C   0  0  0  0  0  0  0  0  0  0  0  0
   -4.6094    0.6654    2.9718 C   0  0  0  0  0  0  0  0  0  0  0  0
   -3.8558   -0.3256    2.3481 C   0  0  0  0  0  0  0  0  0  0  0  0
   -3.5317   -2.5036   -0.2937 C   0  0  0  0  0  0  0  0  0  0  0  0
   -2.7978   -3.5194   -0.9070 C   0  0  0  0  0  0  0  0  0  0  0  0
   -1.3793   -3.5132   -0.8393 C   0  0  0  0  0  0  0  0  0  0  0  0
   -0.7190   -4.5286   -1.5798 C   0  0  0  0  0  0  0  0  0  0  0  0
   -1.4083   -5.5237   -2.2784 C   0  0  0  0  0  0  0  0  0  0  0  0
   -2.7929   -5.5299   -2.2819 C   0  0  0  0  0  0  0  0  0  0  0  0
   -3.4825   -4.5286   -1.6054 C   0  0  0  0  0  0  0  0  0  0  0  0
   -0.6889   -2.4876   -0.0922 C   0  0  0  0  0  0  0  0  0  0  0  0
    0.7448   -2.4927    0.1096 C   0  0  0  0  0  0  0  0  0  0  0  0
    1.5117   -1.3695   -0.2786 C   0  0  0  0  0  0  0  0  0  0  0  0
    0.8607   -0.2227   -0.6734 O   0  0  0  0  0  0  0  0  0  0  0  0
    2.9158   -1.3662   -0.3309 C   0  0  0  0  0  0  0  0  0  0  0  0
    3.6863   -0.2413   -0.8946 C   0  0  0  0  0  0  0  0  0  0  0  0
    3.7970   -0.1660   -2.2947 C   0  0  0  0  0  0  0  0  0  0  0  0
    4.5467    0.8348   -2.9065 C   0  0  0  0  0  0  0  0  0  0  0  0
    5.2114    1.7913   -2.1355 C   0  0  0  0  0  0  0  0  0  0  0  0
    5.9745    2.7945   -2.7475 C   0  0  0  0  0  0  0  0  0  0  0  0
    6.6390    3.7544   -1.9819 C   0  0  0  0  0  0  0  0  0  0  0  0
    5.1113    1.7450   -0.7240 C   0  0  0  0  0  0  0  0  0  0  0  0
    4.3449    0.7300   -0.0912 C   0  0  0  0  0  0  0  0  0  0  0  0
    4.2744    0.7454    1.3178 C   0  0  0  0  0  0  0  0  0  0  0  0
    4.9331    1.7145    2.0768 C   0  0  0  0  0  0  0  0  0  0  0  0
    5.6958    2.7076    1.4577 C   0  0  0  0  0  0  0  0  0  0  0  0
    6.3632    3.6850    2.2100 C   0  0  0  0  0  0  0  0  0  0  0  0
    7.1203    4.6720    1.5811 C   0  0  0  0  0  0  0  0  0  0  0  0
    7.2168    4.6957    0.1918 C   0  0  0  0  0  0  0  0  0  0  0  0
    6.5555    3.7342   -0.5862 C   0  0  0  0  0  0  0  0  0  0  0  0
    5.7878    2.7270    0.0486 C   0  0  0  0  0  0  0  0  0  0  0  0
    3.5904   -2.5041    0.1173 C   0  0  0  0  0  0  0  0  0  0  0  0
    2.9005   -3.6068    0.6280 C   0  0  0  0  0  0  0  0  0  0  0  0
    1.4804   -3.6114    0.6442 C   0  0  0  0  0  0  0  0  0  0  0  0
    0.8617   -4.7372    1.2450 C   0  0  0  0  0  0  0  0  0  0  0  0
    1.5935   -5.8182    1.7446 C   0  0  0  0  0  0  0  0  0  0  0  0
    2.9776   -5.8046    1.6758 C   0  0  0  0  0  0  0  0  0  0  0  0
    3.6263   -4.7025    1.1259 C   0  0  0  0  0  0  0  0  0  0  0  0
   -1.5006    1.1312   -0.8788 H   0  0  0  0  0  0  0  0  0  0  0  0
   -3.7393   -0.0852   -1.8075 H   0  0  0  0  0  0  0  0  0  0  0  0
   -4.8494    1.6515   -3.0811 H   0  0  0  0  0  0  0  0  0  0  0  0
   -6.2749    3.6744   -3.1795 H   0  0  0  0  0  0  0  0  0  0  0  0
   -7.5988    5.4023   -2.0281 H   0  0  0  0  0  0  0  0  0  0  0  0
   -7.7902    5.4012    0.4270 H   0  0  0  0  0  0  0  0  0  0  0  0
   -7.2334    4.3896    2.6144 H   0  0  0  0  0  0  0  0  0  0  0  0
   -6.1027    2.6676    3.9261 H   0  0  0  0  0  0  0  0  0  0  0  0
   -4.6848    0.6634    4.0567 H   0  0  0  0  0  0  0  0  0  0  0  0
   -3.3623   -1.0755    2.9650 H   0  0  0  0  0  0  0  0  0  0  0  0
   -4.6207   -2.5162   -0.3424 H   0  0  0  0  0  0  0  0  0  0  0  0
    0.3682   -4.5572   -1.6343 H   0  0  0  0  0  0  0  0  0  0  0  0
   -0.8556   -6.2869   -2.8202 H   0  0  0  0  0  0  0  0  0  0  0  0
   -3.3363   -6.3006   -2.8214 H   0  0  0  0  0  0  0  0  0  0  0  0
   -4.5708   -4.5353   -1.6400 H   0  0  0  0  0  0  0  0  0  0  0  0
    3.2990   -0.9064   -2.9195 H   0  0  0  0  0  0  0  0  0  0  0  0
    4.6092    0.8554   -3.9919 H   0  0  0  0  0  0  0  0  0  0  0  0
    6.0596    2.8406   -3.8310 H   0  0  0  0  0  0  0  0  0  0  0  0
    7.2204    4.5220   -2.4894 H   0  0  0  0  0  0  0  0  0  0  0  0
    3.6752    0.0107    1.8521 H   0  0  0  0  0  0  0  0  0  0  0  0
    4.8295    1.6884    3.1588 H   0  0  0  0  0  0  0  0  0  0  0  0
    6.2940    3.6860    3.2953 H   0  0  0  0  0  0  0  0  0  0  0  0
    7.6306    5.4258    2.1754 H   0  0  0  0  0  0  0  0  0  0  0  0
    7.8087    5.4774   -0.2812 H   0  0  0  0  0  0  0  0  0  0  0  0
    4.6800   -2.5134    0.0834 H   0  0  0  0  0  0  0  0  0  0  0  0
   -0.2218   -4.7842    1.3450 H   0  0  0  0  0  0  0  0  0  0  0  0
    1.0764   -6.6630    2.1919 H   0  0  0  0  0  0  0  0  0  0  0  0
    3.5538   -6.6403    2.0633 H   0  0  0  0  0  0  0  0  0  0  0  0
    4.7150   -4.7002    1.0991 H   0  0  0  0  0  0  0  0  0  0  0  0
  1  2  2  0
  2  3  1  0
  2  4  1  0
  4  5  1  0
  5  6  2  0
  6  7  1  0
  7  8  1  0
  8  9  2  0
  9 10  1  0
 10 11  2  0
 11 12  1  0
 12 13  2  0
 13 14  1  0
 14 15  2  0
 15 16  1  0
 16 17  2  0
 15 18  1  0
  8 19  1  0
 19 20  1  0
 20 21  2  0
 21 22  1  0
  6 23  1  0
 23 24  2  0
 24 25  1  0
 25 26  1  0
 26 27  2  0
 27 28  1  0
 28 29  2  0
 25 30  2  0
 30 31  1  0
 31 32  2  0
 32 33  1  0
 32 34  1  0
 34 35  1  0
 35 36  2  0
 36 37  1  0
 37 38  2  0
 38 39  1  0
 39 40  2  0
 38 41  1  0
 41 42  2  0
 42 43  1  0
 43 44  2  0
 44 45  1  0
 45 46  2  0
 46 47  1  0
 47 48  2  0
 48 49  1  0
 49 50  2  0
 34 51  2  0
 51 52  1  0
 52 53  2  0
 53 54  1  0
 54 55  2  0
 55 56  1  0
 56 57  2  0
 33  2  1  0
 30  5  1  0
 22  7  2  0
 18 11  1  0
 20 17  1  0
 19 18  2  0
 29 24  1  0
 53 31  1  0
 42 35  1  0
 49 40  1  0
 50 41  1  0
 50 45  1  0
 57 52  1  0
  3 58  1  0
  9 59  1  0
 10 60  1  0
 12 61  1  0
 13 62  1  0
 14 63  1  0
 16 64  1  0
 17 65  1  0
 21 66  1  0
 22 67  1  0
 23 68  1  0
 26 69  1  0
 27 70  1  0
 28 71  1  0
 29 72  1  0
 36 73  1  0
 37 74  1  0
 39 75  1  0
 40 76  1  0
 43 77  1  0
 44 78  1  0
 46 79  1  0
 47 80  1  0
 48 81  1  0
 51 82  1  0
 54 83  1  0
 55 84  1  0
 56 85  1  0
 57 86  1  0
M  END
