
     RDKit          3D

104114  0  0  0  0  0  0  0  0999 V2000
   -0.5208   -1.6713   -2.0112 O   0  0  0  0  0  0  0  0  0  0  0  0
    0.0246   -1.1804   -0.7056 P   0  0  0  0  0  5  0  0  0  0  0  0
    0.7442   -2.3518    0.1323 O   0  0  0  0  0  0  0  0  0  0  0  0
   -1.0765   -0.6566    0.3502 O   0  0  0  0  0  0  0  0  0  0  0  0
   -1.6254    0.5783    0.1250 C   0  0  0  0  0  0  0  0  0  0  0  0
   -2.9841    0.6536   -0.2254 C   0  0  0  0  0  0  0  0  0  0  0  0
   -4.1622   -0.8054   -0.3273 Si  0  0  0  0  0  4  0  0  0  0  0  0
   -5.5822   -0.3458    0.8233 C   0  0  0  0  0  0  0  0  0  0  0  0
   -6.9335   -0.4710    0.4537 C   0  0  0  0  0  0  0  0  0  0  0  0
   -7.9613   -0.1064    1.3303 C   0  0  0  0  0  0  0  0  0  0  0  0
   -7.6648    0.4052    2.5902 C   0  0  0  0  0  0  0  0  0  0  0  0
   -6.3384    0.5539    2.9768 C   0  0  0  0  0  0  0  0  0  0  0  0
   -5.3106    0.1857    2.1042 C   0  0  0  0  0  0  0  0  0  0  0  0
   -4.7801   -1.0161   -2.0822 C   0  0  0  0  0  0  0  0  0  0  0  0
   -4.3354   -0.2012   -3.1424 C   0  0  0  0  0  0  0  0  0  0  0  0
   -4.7953   -0.3906   -4.4516 C   0  0  0  0  0  0  0  0  0  0  0  0
   -5.7075   -1.4033   -4.7325 C   0  0  0  0  0  0  0  0  0  0  0  0
   -6.1506   -2.2358   -3.7095 C   0  0  0  0  0  0  0  0  0  0  0  0
   -5.6806   -2.0542   -2.4054 C   0  0  0  0  0  0  0  0  0  0  0  0
   -3.4025   -2.4172    0.2281 C   0  0  0  0  0  0  0  0  0  0  0  0
   -3.2969   -2.7680    1.5883 C   0  0  0  0  0  0  0  0  0  0  0  0
   -2.7015   -3.9699    1.9890 C   0  0  0  0  0  0  0  0  0  0  0  0
   -2.1936   -4.8513    1.0405 C   0  0  0  0  0  0  0  0  0  0  0  0
   -2.2834   -4.5326   -0.3098 C   0  0  0  0  0  0  0  0  0  0  0  0
   -2.8780   -3.3312   -0.7103 C   0  0  0  0  0  0  0  0  0  0  0  0
   -3.4972    1.9434   -0.4638 C   0  0  0  0  0  0  0  0  0  0  0  0
   -2.7034    3.0939   -0.3816 C   0  0  0  0  0  0  0  0  0  0  0  0
   -1.3464    2.9934    0.0066 C   0  0  0  0  0  0  0  0  0  0  0  0
   -0.5941    4.1982   -0.0057 C   0  0  0  0  0  0  0  0  0  0  0  0
   -1.1629    5.4339   -0.3230 C   0  0  0  0  0  0  0  0  0  0  0  0
   -2.5058    5.5084   -0.6530 C   0  0  0  0  0  0  0  0  0  0  0  0
   -3.2673    4.3434   -0.6926 C   0  0  0  0  0  0  0  0  0  0  0  0
   -0.7933    1.7086    0.3417 C   0  0  0  0  0  0  0  0  0  0  0  0
    0.5195    1.5409    0.9235 C   0  0  0  0  0  0  0  0  0  0  0  0
    1.4953    0.7016    0.3103 C   0  0  0  0  0  0  0  0  0  0  0  0
    1.1338   -0.0157   -0.8041 O   0  0  0  0  0  0  0  0  0  0  0  0
    2.8411    0.6438    0.7219 C   0  0  0  0  0  0  0  0  0  0  0  0
    4.2221   -0.2755   -0.1603 Si  0  0  0  0  0  4  0  0  0  0  0  0
    3.7416   -0.9613   -1.8248 C   0  0  0  0  0  0  0  0  0  0  0  0
    3.3092   -2.2975   -1.9584 C   0  0  0  0  0  0  0  0  0  0  0  0
    2.9291   -2.8176   -3.2006 C   0  0  0  0  0  0  0  0  0  0  0  0
    2.9816   -2.0227   -4.3419 C   0  0  0  0  0  0  0  0  0  0  0  0
    3.4049   -0.7021   -4.2401 C   0  0  0  0  0  0  0  0  0  0  0  0
    3.7835   -0.1784   -2.9980 C   0  0  0  0  0  0  0  0  0  0  0  0
    5.5826    1.0162   -0.3979 C   0  0  0  0  0  0  0  0  0  0  0  0
    6.9340    0.7641   -0.0954 C   0  0  0  0  0  0  0  0  0  0  0  0
    7.9112    1.7511   -0.2720 C   0  0  0  0  0  0  0  0  0  0  0  0
    7.5618    3.0112   -0.7492 C   0  0  0  0  0  0  0  0  0  0  0  0
    6.2328    3.2896   -1.0471 C   0  0  0  0  0  0  0  0  0  0  0  0
    5.2532    2.3091   -0.8665 C   0  0  0  0  0  0  0  0  0  0  0  0
    4.8546   -1.6789    0.9087 C   0  0  0  0  0  0  0  0  0  0  0  0
    5.8619   -2.5472    0.4337 C   0  0  0  0  0  0  0  0  0  0  0  0
    6.3504   -3.6004    1.2144 C   0  0  0  0  0  0  0  0  0  0  0  0
    5.8301   -3.8253    2.4847 C   0  0  0  0  0  0  0  0  0  0  0  0
    4.8205   -3.0009    2.9715 C   0  0  0  0  0  0  0  0  0  0  0  0
    4.3339   -1.9446    2.1905 C   0  0  0  0  0  0  0  0  0  0  0  0
    3.1848    1.3873    1.8691 C   0  0  0  0  0  0  0  0  0  0  0  0
    2.2516    2.1431    2.5834 C   0  0  0  0  0  0  0  0  0  0  0  0
    0.9136    2.2186    2.1322 C   0  0  0  0  0  0  0  0  0  0  0  0
    0.0185    2.9486    2.9597 C   0  0  0  0  0  0  0  0  0  0  0  0
    0.4313    3.6116    4.1188 C   0  0  0  0  0  0  0  0  0  0  0  0
    1.7580    3.5480    4.5127 C   0  0  0  0  0  0  0  0  0  0  0  0
    2.6614    2.8152    3.7495 C   0  0  0  0  0  0  0  0  0  0  0  0
    0.1731   -3.1423    0.1230 H   0  0  0  0  0  0  0  0  0  0  0  0
   -7.2228   -0.8526   -0.5236 H   0  0  0  0  0  0  0  0  0  0  0  0
   -8.9977   -0.2162    1.0206 H   0  0  0  0  0  0  0  0  0  0  0  0
   -8.4663    0.6880    3.2668 H   0  0  0  0  0  0  0  0  0  0  0  0
   -6.0993    0.9636    3.9549 H   0  0  0  0  0  0  0  0  0  0  0  0
   -4.2842    0.3300    2.4408 H   0  0  0  0  0  0  0  0  0  0  0  0
   -3.6045    0.5894   -2.9793 H   0  0  0  0  0  0  0  0  0  0  0  0
   -4.4267    0.2487   -5.2522 H   0  0  0  0  0  0  0  0  0  0  0  0
   -6.0620   -1.5506   -5.7496 H   0  0  0  0  0  0  0  0  0  0  0  0
   -6.8517   -3.0378   -3.9270 H   0  0  0  0  0  0  0  0  0  0  0  0
   -6.0356   -2.7411   -1.6360 H   0  0  0  0  0  0  0  0  0  0  0  0
   -3.6775   -2.1107    2.3678 H   0  0  0  0  0  0  0  0  0  0  0  0
   -2.6437   -4.2167    3.0467 H   0  0  0  0  0  0  0  0  0  0  0  0
   -1.7376   -5.7870    1.3536 H   0  0  0  0  0  0  0  0  0  0  0  0
   -1.8942   -5.2180   -1.0599 H   0  0  0  0  0  0  0  0  0  0  0  0
   -2.9098   -3.1188   -1.7819 H   0  0  0  0  0  0  0  0  0  0  0  0
   -4.5490    2.0615   -0.7368 H   0  0  0  0  0  0  0  0  0  0  0  0
    0.4694    4.1851    0.2267 H   0  0  0  0  0  0  0  0  0  0  0  0
   -0.5481    6.3307   -0.3064 H   0  0  0  0  0  0  0  0  0  0  0  0
   -2.9558    6.4657   -0.9049 H   0  0  0  0  0  0  0  0  0  0  0  0
   -4.3154    4.4195   -0.9748 H   0  0  0  0  0  0  0  0  0  0  0  0
    3.2439   -2.9529   -1.0887 H   0  0  0  0  0  0  0  0  0  0  0  0
    2.5871   -3.8463   -3.2725 H   0  0  0  0  0  0  0  0  0  0  0  0
    2.6834   -2.4298   -5.3044 H   0  0  0  0  0  0  0  0  0  0  0  0
    3.4424   -0.0741   -5.1273 H   0  0  0  0  0  0  0  0  0  0  0  0
    4.1019    0.8625   -2.9736 H   0  0  0  0  0  0  0  0  0  0  0  0
    7.2603   -0.2021    0.2881 H   0  0  0  0  0  0  0  0  0  0  0  0
    8.9484    1.5323   -0.0319 H   0  0  0  0  0  0  0  0  0  0  0  0
    8.3235    3.7746   -0.8875 H   0  0  0  0  0  0  0  0  0  0  0  0
    5.9530    4.2743   -1.4143 H   0  0  0  0  0  0  0  0  0  0  0  0
    4.2213    2.5680   -1.1062 H   0  0  0  0  0  0  0  0  0  0  0  0
    6.2832   -2.4155   -0.5633 H   0  0  0  0  0  0  0  0  0  0  0  0
    7.1330   -4.2463    0.8232 H   0  0  0  0  0  0  0  0  0  0  0  0
    6.2068   -4.6436    3.0931 H   0  0  0  0  0  0  0  0  0  0  0  0
    4.3993   -3.1852    3.9586 H   0  0  0  0  0  0  0  0  0  0  0  0
    3.5352   -1.3374    2.6133 H   0  0  0  0  0  0  0  0  0  0  0  0
    4.2175    1.3770    2.2255 H   0  0  0  0  0  0  0  0  0  0  0  0
   -1.0395    3.0015    2.7152 H   0  0  0  0  0  0  0  0  0  0  0  0
   -0.2907    4.1672    4.7127 H   0  0  0  0  0  0  0  0  0  0  0  0
    2.0916    4.0542    5.4146 H   0  0  0  0  0  0  0  0  0  0  0  0
    3.6968    2.7589    4.0818 H   0  0  0  0  0  0  0  0  0  0  0  0
  1  2  2  0
  2  3  1  0
  2  4  1  0
  4  5  1  0
  5  6  2  0
  6  7  1  0
  7  8  1  0
  8  9  2  0
  9 10  1  0
 10 11  2  0
 11 12  1  0
 12 13  2  0
  7 14  1  0
 14 15  2  0
 15 16  1  0
 16 17  2  0
 17 18  1  0
 18 19  2  0
  7 20  1  0
 20 21  2  0
 21 22  1  0
 22 23  2  0
 23 24  1  0
 24 25  2  0
  6 26  1  0
 26 27  2  0
 27 28  1  0
 28 29  1  0
 29 30  2  0
 30 31  1  0
 31 32  2  0
 28 33  2  0
 33 34  1  0
 34 35  2  0
 35 36  1  0
 35 37  1  0
 37 38  1  0
 38 39  1  0
 39 40  2  0
 40 41  1  0
 41 42  2  0
 42 43  1  0
 43 44  2  0
 38 45  1  0
 45 46  2  0
 46 47  1  0
 47 48  2  0
 48 49  1  0
 49 50  2  0
 38 51  1  0
 51 52  2  0
 52 53  1  0
 53 54  2  0
 54 55  1  0
 55 56  2  0
 37 57  2  0
 57 58  1  0
 58 59  2  0
 59 60  1  0
 60 61  2  0
 61 62  1  0
 62 63  2  0
 36  2  1  0
 33  5  1  0
 13  8  1  0
 19 14  1  0
 25 20  1  0
 32 27  1  0
 59 34  1  0
 44 39  1  0
 50 45  1  0
 56 51  1  0
 63 58  1  0
  3 64  1  0
  9 65  1  0
 10 66  1  0
 11 67  1  0
 12 68  1  0
 13 69  1  0
 15 70  1  0
 16 71  1  0
 17 72  1  0
 18 73  1  0
 19 74  1  0
 21 75  1  0
 22 76  1  0
 23 77  1  0
 24 78  1  0
 25 79  1  0
 26 80  1  0
 29 81  1  0
 30 82  1  0
 31 83  1  0
 32 84  1  0
 40 85  1  0
 41 86  1  0
 42 87  1  0
 43 88  1  0
 44 89  1  0
 46 90  1  0
 47 91  1  0
 48 92  1  0
 49 93  1  0
 50 94  1  0
 52 95  1  0
 53 96  1  0
 54 97  1  0
 55 98  1  0
 56 99  1  0
 57100  1  0
 60101  1  0
 61102  1  0
 62103  1  0
 63104  1  0
M  END
