
     RDKit          3D

 27 28  0  0  0  0  0  0  0  0999 V2000
   -1.2191   -2.4328   -0.0991 O   0  0  0  0  0  0  0  0  0  0  0  0
   -1.1680   -1.2072   -0.1314 C   0  0  0  0  0  0  0  0  0  0  0  0
   -2.4355   -0.4244   -0.2635 C   0  0  0  0  0  0  0  0  0  0  0  0
   -3.6569   -1.1076   -0.3477 C   0  0  0  0  0  0  0  0  0  0  0  0
   -4.8536   -0.3985   -0.4716 C   0  0  0  0  0  0  0  0  0  0  0  0
   -4.8371    0.9952   -0.5119 C   0  0  0  0  0  0  0  0  0  0  0  0
   -3.6266    1.6828   -0.4287 C   0  0  0  0  0  0  0  0  0  0  0  0
   -2.4276    0.9767   -0.3047 C   0  0  0  0  0  0  0  0  0  0  0  0
   -0.0125   -0.4603   -0.0546 N   0  0  0  0  0  0  0  0  0  0  0  0
    1.0935   -1.1223    0.0600 C   0  0  0  0  0  0  0  0  0  0  0  0
    2.4019   -0.4434    0.1519 C   0  0  0  0  0  0  0  0  0  0  0  0
    3.5562   -1.2224    0.2742 C   0  0  0  0  0  0  0  0  0  0  0  0
    4.8037   -0.6020    0.3625 C   0  0  0  0  0  0  0  0  0  0  0  0
    4.8959    0.7901    0.3288 C   0  0  0  0  0  0  0  0  0  0  0  0
    3.7428    1.5662    0.2067 C   0  0  0  0  0  0  0  0  0  0  0  0
    2.4931    0.9510    0.1180 C   0  0  0  0  0  0  0  0  0  0  0  0
   -3.6803   -2.1951   -0.3172 H   0  0  0  0  0  0  0  0  0  0  0  0
   -5.7973   -0.9344   -0.5364 H   0  0  0  0  0  0  0  0  0  0  0  0
   -5.7694    1.5464   -0.6083 H   0  0  0  0  0  0  0  0  0  0  0  0
   -3.6154    2.7694   -0.4602 H   0  0  0  0  0  0  0  0  0  0  0  0
   -1.4926    1.5276   -0.2411 H   0  0  0  0  0  0  0  0  0  0  0  0
    1.1187   -2.2277    0.0953 H   0  0  0  0  0  0  0  0  0  0  0  0
    3.4972   -2.3074    0.3016 H   0  0  0  0  0  0  0  0  0  0  0  0
    5.7047   -1.2031    0.4578 H   0  0  0  0  0  0  0  0  0  0  0  0
    5.8686    1.2714    0.3978 H   0  0  0  0  0  0  0  0  0  0  0  0
    3.8169    2.6505    0.1806 H   0  0  0  0  0  0  0  0  0  0  0  0
    1.5987    1.5612    0.0230 H   0  0  0  0  0  0  0  0  0  0  0  0
  1  2  2  0
  2  3  1  0
  3  4  2  0
  4  5  1  0
  5  6  2  0
  6  7  1  0
  7  8  2  0
  2  9  1  0
  9 10  2  0
 10 11  1  0
 11 12  2  0
 12 13  1  0
 13 14  2  0
 14 15  1  0
 15 16  2  0
  8  3  1  0
 16 11  1  0
  4 17  1  0
  5 18  1  0
  6 19  1  0
  7 20  1  0
  8 21  1  0
 10 22  1  0
 12 23  1  0
 13 24  1  0
 14 25  1  0
 15 26  1  0
 16 27  1  0
M  END
