
     RDKit          3D

 36 38  0  0  0  0  0  0  0  0999 V2000
    0.5959   -3.1885    0.3565 O   0  0  0  0  0  0  0  0  0  0  0  0
    0.6568   -1.9782    0.1652 C   0  0  0  0  0  0  0  0  0  0  0  0
   -0.4308   -1.1393    0.0523 N   0  0  0  0  0  0  0  0  0  0  0  0
   -1.5957   -1.6918    0.1606 C   0  0  0  0  0  0  0  0  0  0  0  0
   -2.8415   -0.9048    0.0587 C   0  0  0  0  0  0  0  0  0  0  0  0
   -2.8049    0.4743   -0.1618 C   0  0  0  0  0  0  0  0  0  0  0  0
   -3.9977    1.1961   -0.2547 C   0  0  0  0  0  0  0  0  0  0  0  0
   -5.2365    0.5483   -0.1216 C   0  0  0  0  0  0  0  0  0  0  0  0
   -6.5260    1.3255   -0.2449 C   0  0  0  0  0  0  0  0  0  0  0  0
   -7.5403    0.7955    0.4942 F   0  0  0  0  0  0  0  0  0  0  0  0
   -6.9807    1.3710   -1.5270 F   0  0  0  0  0  0  0  0  0  0  0  0
   -6.4103    2.6212    0.1588 F   0  0  0  0  0  0  0  0  0  0  0  0
   -5.2581   -0.8401    0.0911 C   0  0  0  0  0  0  0  0  0  0  0  0
   -4.0664   -1.5646    0.1844 C   0  0  0  0  0  0  0  0  0  0  0  0
    1.9951   -1.3231    0.0391 C   0  0  0  0  0  0  0  0  0  0  0  0
    3.1504   -2.1060    0.1415 C   0  0  0  0  0  0  0  0  0  0  0  0
    4.4124   -1.5177    0.0272 C   0  0  0  0  0  0  0  0  0  0  0  0
    4.5417   -0.1377   -0.1913 C   0  0  0  0  0  0  0  0  0  0  0  0
    5.8029    0.4680   -0.3083 C   0  0  0  0  0  0  0  0  0  0  0  0
    5.9168    1.8420   -0.5255 C   0  0  0  0  0  0  0  0  0  0  0  0
    4.7725    2.6273   -0.6285 C   0  0  0  0  0  0  0  0  0  0  0  0
    3.5111    2.0408   -0.5144 C   0  0  0  0  0  0  0  0  0  0  0  0
    3.3783    0.6600   -0.2958 C   0  0  0  0  0  0  0  0  0  0  0  0
    2.1146    0.0564   -0.1791 C   0  0  0  0  0  0  0  0  0  0  0  0
   -1.7213   -2.7771    0.3346 H   0  0  0  0  0  0  0  0  0  0  0  0
   -1.8539    0.9920   -0.2636 H   0  0  0  0  0  0  0  0  0  0  0  0
   -3.9567    2.2706   -0.4304 H   0  0  0  0  0  0  0  0  0  0  0  0
   -6.2090   -1.3637    0.1869 H   0  0  0  0  0  0  0  0  0  0  0  0
   -4.1067   -2.6382    0.3529 H   0  0  0  0  0  0  0  0  0  0  0  0
    3.0747   -3.1783    0.3108 H   0  0  0  0  0  0  0  0  0  0  0  0
    5.2953   -2.1480    0.1104 H   0  0  0  0  0  0  0  0  0  0  0  0
    6.7093   -0.1284   -0.2308 H   0  0  0  0  0  0  0  0  0  0  0  0
    6.8996    2.2978   -0.6142 H   0  0  0  0  0  0  0  0  0  0  0  0
    4.8605    3.6974   -0.7976 H   0  0  0  0  0  0  0  0  0  0  0  0
    2.6294    2.6725   -0.5979 H   0  0  0  0  0  0  0  0  0  0  0  0
    1.2193    0.6689   -0.2593 H   0  0  0  0  0  0  0  0  0  0  0  0
  1  2  2  0
  2  3  1  0
  3  4  2  0
  4  5  1  0
  5  6  2  0
  6  7  1  0
  7  8  2  0
  8  9  1  0
  9 10  1  0
  9 11  1  0
  9 12  1  0
  8 13  1  0
 13 14  2  0
  2 15  1  0
 15 16  2  0
 16 17  1  0
 17 18  2  0
 18 19  1  0
 19 20  2  0
 20 21  1  0
 21 22  2  0
 22 23  1  0
 23 24  2  0
 14  5  1  0
 24 15  1  0
 23 18  1  0
  4 25  1  0
  6 26  1  0
  7 27  1  0
 13 28  1  0
 14 29  1  0
 16 30  1  0
 17 31  1  0
 19 32  1  0
 20 33  1  0
 21 34  1  0
 22 35  1  0
 24 36  1  0
M  END
