
     RDKit          3D

 58 64  0  0  0  0  0  0  0  0999 V2000
    1.0045    3.0260    1.2296 O   0  0  0  0  0  0  0  0  0  0  0  0
    0.1871    2.1766    0.3077 P   0  0  0  0  0  5  0  0  0  0  0  0
   -0.8824    1.2109    1.0245 O   0  0  0  0  0  0  0  0  0  0  0  0
   -1.5025    0.2332    0.2753 C   0  0  0  0  0  0  0  0  0  0  0  0
   -2.8923    0.3650    0.1068 C   0  0  0  0  0  0  0  0  0  0  0  0
   -3.5585   -0.6156   -0.6291 C   0  0  0  0  0  0  0  0  0  0  0  0
   -2.8707   -1.6853   -1.2090 C   0  0  0  0  0  0  0  0  0  0  0  0
   -1.4663   -1.8121   -1.0333 C   0  0  0  0  0  0  0  0  0  0  0  0
   -0.8419   -2.8736   -1.7379 C   0  0  0  0  0  0  0  0  0  0  0  0
   -1.5604   -3.7911   -2.5095 C   0  0  0  0  0  0  0  0  0  0  0  0
   -2.9355   -3.6693   -2.6218 C   0  0  0  0  0  0  0  0  0  0  0  0
   -3.5843   -2.6180   -1.9809 C   0  0  0  0  0  0  0  0  0  0  0  0
   -0.7473   -0.8612   -0.2209 C   0  0  0  0  0  0  0  0  0  0  0  0
    0.6619   -0.9819    0.0947 C   0  0  0  0  0  0  0  0  0  0  0  0
    1.5446    0.0870   -0.1970 C   0  0  0  0  0  0  0  0  0  0  0  0
    2.9386    0.0264   -0.0299 C   0  0  0  0  0  0  0  0  0  0  0  0
    3.8209    1.1497   -0.3808 C   0  0  0  0  0  0  0  0  0  0  0  0
    4.5167    1.8535    0.6151 C   0  0  0  0  0  0  0  0  0  0  0  0
    5.3512    2.9204    0.2774 C   0  0  0  0  0  0  0  0  0  0  0  0
    6.1967    3.7652    1.5157 Cl  0  0  0  0  0  0  0  0  0  0  0  0
    5.5088    3.3069   -1.0498 C   0  0  0  0  0  0  0  0  0  0  0  0
    4.8215    2.6157   -2.0423 C   0  0  0  0  0  0  0  0  0  0  0  0
    5.0027    3.0840   -3.6884 Cl  0  0  0  0  0  0  0  0  0  0  0  0
    3.9857    1.5460   -1.7176 C   0  0  0  0  0  0  0  0  0  0  0  0
    3.4791   -1.1493    0.4928 C   0  0  0  0  0  0  0  0  0  0  0  0
    2.6661   -2.2238    0.8682 C   0  0  0  0  0  0  0  0  0  0  0  0
    3.2589   -3.3653    1.4341 C   0  0  0  0  0  0  0  0  0  0  0  0
    2.4854   -4.4368    1.8710 C   0  0  0  0  0  0  0  0  0  0  0  0
    1.1061   -4.3726    1.7598 C   0  0  0  0  0  0  0  0  0  0  0  0
    0.5062   -3.2455    1.1916 C   0  0  0  0  0  0  0  0  0  0  0  0
    1.2575   -2.1495    0.6956 C   0  0  0  0  0  0  0  0  0  0  0  0
    1.0266    1.2553   -0.7116 O   0  0  0  0  0  0  0  0  0  0  0  0
   -3.6467    1.4924    0.6733 C   0  0  0  0  0  0  0  0  0  0  0  0
   -4.1590    2.5000   -0.1589 C   0  0  0  0  0  0  0  0  0  0  0  0
   -4.8694    3.5721    0.3830 C   0  0  0  0  0  0  0  0  0  0  0  0
   -5.4815    4.7992   -0.6570 Cl  0  0  0  0  0  0  0  0  0  0  0  0
   -5.0862    3.6602    1.7545 C   0  0  0  0  0  0  0  0  0  0  0  0
   -4.5818    2.6645    2.5854 C   0  0  0  0  0  0  0  0  0  0  0  0
   -4.8420    2.7601    4.2839 Cl  0  0  0  0  0  0  0  0  0  0  0  0
   -3.8678    1.5885    2.0561 C   0  0  0  0  0  0  0  0  0  0  0  0
   -0.6974    3.0958   -0.6720 O   0  0  0  0  0  0  0  0  0  0  0  0
   -4.6363   -0.5298   -0.7663 H   0  0  0  0  0  0  0  0  0  0  0  0
    0.2391   -2.9983   -1.7063 H   0  0  0  0  0  0  0  0  0  0  0  0
   -1.0379   -4.5939   -3.0235 H   0  0  0  0  0  0  0  0  0  0  0  0
   -3.5016   -4.3782   -3.2200 H   0  0  0  0  0  0  0  0  0  0  0  0
   -4.6623   -2.5251   -2.1022 H   0  0  0  0  0  0  0  0  0  0  0  0
    4.3951    1.5779    1.6613 H   0  0  0  0  0  0  0  0  0  0  0  0
    6.1584    4.1385   -1.3069 H   0  0  0  0  0  0  0  0  0  0  0  0
    3.4567    1.0169   -2.5084 H   0  0  0  0  0  0  0  0  0  0  0  0
    4.5586   -1.2195    0.6260 H   0  0  0  0  0  0  0  0  0  0  0  0
    4.3393   -3.4251    1.5536 H   0  0  0  0  0  0  0  0  0  0  0  0
    2.9594   -5.3093    2.3125 H   0  0  0  0  0  0  0  0  0  0  0  0
    0.4889   -5.1926    2.1182 H   0  0  0  0  0  0  0  0  0  0  0  0
   -0.5817   -3.2330    1.1531 H   0  0  0  0  0  0  0  0  0  0  0  0
   -3.9880    2.4543   -1.2330 H   0  0  0  0  0  0  0  0  0  0  0  0
   -5.6397    4.4965    2.1717 H   0  0  0  0  0  0  0  0  0  0  0  0
   -3.4769    0.8210    2.7217 H   0  0  0  0  0  0  0  0  0  0  0  0
   -0.3239    3.9962   -0.6998 H   0  0  0  0  0  0  0  0  0  0  0  0
  1  2  2  0
  2  3  1  0
  3  4  1  0
  4  5  2  0
  5  6  1  0
  6  7  2  0
  7  8  1  0
  8  9  1  0
  9 10  2  0
 10 11  1  0
 11 12  2  0
  8 13  2  0
 13 14  1  0
 14 15  2  0
 15 16  1  0
 16 17  1  0
 17 18  2  0
 18 19  1  0
 19 20  1  0
 19 21  2  0
 21 22  1  0
 22 23  1  0
 22 24  2  0
 16 25  2  0
 25 26  1  0
 26 27  2  0
 27 28  1  0
 28 29  2  0
 29 30  1  0
 30 31  2  0
 15 32  1  0
  5 33  1  0
 33 34  2  0
 34 35  1  0
 35 36  1  0
 35 37  2  0
 37 38  1  0
 38 39  1  0
 38 40  2  0
  2 41  1  0
 32  2  1  0
 13  4  1  0
 12  7  1  0
 31 14  1  0
 24 17  1  0
 31 26  1  0
 40 33  1  0
  6 42  1  0
  9 43  1  0
 10 44  1  0
 11 45  1  0
 12 46  1  0
 18 47  1  0
 21 48  1  0
 24 49  1  0
 25 50  1  0
 27 51  1  0
 28 52  1  0
 29 53  1  0
 30 54  1  0
 34 55  1  0
 37 56  1  0
 40 57  1  0
 41 58  1  0
M  END
