
     RDKit          3D

 74 80  0  0  0  0  0  0  0  0999 V2000
    0.6276   -2.1073   -1.2608 O   0  0  0  0  0  0  0  0  0  0  0  0
    0.0461   -1.2283   -0.1959 P   0  0  0  0  0  5  0  0  0  0  0  0
    1.1117   -0.4366    0.7125 O   0  0  0  0  0  0  0  0  0  0  0  0
    1.6701    0.6925    0.1565 C   0  0  0  0  0  0  0  0  0  0  0  0
    3.0255    0.6169   -0.2040 C   0  0  0  0  0  0  0  0  0  0  0  0
    3.6109    1.7455   -0.7779 C   0  0  0  0  0  0  0  0  0  0  0  0
    2.8700    2.9062   -1.0229 C   0  0  0  0  0  0  0  0  0  0  0  0
    1.4984    2.9704   -0.6556 C   0  0  0  0  0  0  0  0  0  0  0  0
    0.8036    4.1489   -1.0303 C   0  0  0  0  0  0  0  0  0  0  0  0
    1.4320    5.2221   -1.6677 C   0  0  0  0  0  0  0  0  0  0  0  0
    2.7819    5.1491   -1.9706 C   0  0  0  0  0  0  0  0  0  0  0  0
    3.4936    3.9952   -1.6549 C   0  0  0  0  0  0  0  0  0  0  0  0
    0.8727    1.8541    0.0094 C   0  0  0  0  0  0  0  0  0  0  0  0
   -0.4831    1.8703    0.5241 C   0  0  0  0  0  0  0  0  0  0  0  0
   -1.4116    0.8695    0.1344 C   0  0  0  0  0  0  0  0  0  0  0  0
   -2.7656    0.8662    0.5154 C   0  0  0  0  0  0  0  0  0  0  0  0
   -3.7053   -0.1782    0.0774 C   0  0  0  0  0  0  0  0  0  0  0  0
   -4.2335   -1.0949    0.9975 C   0  0  0  0  0  0  0  0  0  0  0  0
   -5.1186   -2.0997    0.5952 C   0  0  0  0  0  0  0  0  0  0  0  0
   -5.5393   -2.9216    1.6065 O   0  0  0  0  0  0  0  0  0  0  0  0
   -6.3350   -4.0420    1.2426 C   0  0  0  0  0  0  0  0  0  0  0  0
   -5.4991   -2.1879   -0.7464 C   0  0  0  0  0  0  0  0  0  0  0  0
   -4.9829   -1.2865   -1.6815 C   0  0  0  0  0  0  0  0  0  0  0  0
   -5.2630   -1.2693   -3.0216 O   0  0  0  0  0  0  0  0  0  0  0  0
   -6.1705   -2.2491   -3.5069 C   0  0  0  0  0  0  0  0  0  0  0  0
   -4.0926   -0.2920   -1.2650 C   0  0  0  0  0  0  0  0  0  0  0  0
   -3.2115    1.8925    1.3502 C   0  0  0  0  0  0  0  0  0  0  0  0
   -2.3425    2.8790    1.8253 C   0  0  0  0  0  0  0  0  0  0  0  0
   -2.8365    3.8617    2.7003 C   0  0  0  0  0  0  0  0  0  0  0  0
   -1.9971    4.8283    3.2451 C   0  0  0  0  0  0  0  0  0  0  0  0
   -0.6479    4.8141    2.9326 C   0  0  0  0  0  0  0  0  0  0  0  0
   -0.1481    3.8462    2.0571 C   0  0  0  0  0  0  0  0  0  0  0  0
   -0.9740    2.8687    1.4433 C   0  0  0  0  0  0  0  0  0  0  0  0
   -1.0131   -0.1370   -0.7191 O   0  0  0  0  0  0  0  0  0  0  0  0
    3.8188   -0.6054   -0.0110 C   0  0  0  0  0  0  0  0  0  0  0  0
    4.1847   -1.3970   -1.1128 C   0  0  0  0  0  0  0  0  0  0  0  0
    4.9303   -2.5630   -0.9353 C   0  0  0  0  0  0  0  0  0  0  0  0
    5.3382   -3.4121   -1.9307 O   0  0  0  0  0  0  0  0  0  0  0  0
    4.8251   -3.1616   -3.2341 C   0  0  0  0  0  0  0  0  0  0  0  0
    5.3276   -2.9405    0.3522 C   0  0  0  0  0  0  0  0  0  0  0  0
    4.9690   -2.1735    1.4606 C   0  0  0  0  0  0  0  0  0  0  0  0
    5.2841   -2.4451    2.7648 O   0  0  0  0  0  0  0  0  0  0  0  0
    6.0455   -3.6222    3.0082 C   0  0  0  0  0  0  0  0  0  0  0  0
    4.2170   -1.0116    1.2720 C   0  0  0  0  0  0  0  0  0  0  0  0
   -0.7725   -2.1065    0.8716 O   0  0  0  0  0  0  0  0  0  0  0  0
    4.6629    1.7052   -1.0588 H   0  0  0  0  0  0  0  0  0  0  0  0
   -0.2639    4.2450   -0.8390 H   0  0  0  0  0  0  0  0  0  0  0  0
    0.8580    6.1075   -1.9288 H   0  0  0  0  0  0  0  0  0  0  0  0
    3.2776    5.9788   -2.4674 H   0  0  0  0  0  0  0  0  0  0  0  0
    4.5475    3.9471   -1.9224 H   0  0  0  0  0  0  0  0  0  0  0  0
   -3.9385   -1.0420    2.0443 H   0  0  0  0  0  0  0  0  0  0  0  0
   -7.3127   -3.7237    0.8684 H   0  0  0  0  0  0  0  0  0  0  0  0
   -6.4995   -4.6411    2.1420 H   0  0  0  0  0  0  0  0  0  0  0  0
   -5.8212   -4.6773    0.5114 H   0  0  0  0  0  0  0  0  0  0  0  0
   -6.1917   -2.9560   -1.0620 H   0  0  0  0  0  0  0  0  0  0  0  0
   -7.1636   -2.1173   -3.0637 H   0  0  0  0  0  0  0  0  0  0  0  0
   -6.2668   -2.1098   -4.5888 H   0  0  0  0  0  0  0  0  0  0  0  0
   -5.7907   -3.2625   -3.3352 H   0  0  0  0  0  0  0  0  0  0  0  0
   -3.6935    0.4013   -2.0034 H   0  0  0  0  0  0  0  0  0  0  0  0
   -4.2594    1.9058    1.6491 H   0  0  0  0  0  0  0  0  0  0  0  0
   -3.8880    3.8724    2.9810 H   0  0  0  0  0  0  0  0  0  0  0  0
   -2.3942    5.5755    3.9260 H   0  0  0  0  0  0  0  0  0  0  0  0
    0.0233    5.5480    3.3711 H   0  0  0  0  0  0  0  0  0  0  0  0
    0.9242    3.8600    1.8695 H   0  0  0  0  0  0  0  0  0  0  0  0
    3.8585   -1.0849   -2.1014 H   0  0  0  0  0  0  0  0  0  0  0  0
    5.2085   -2.2150   -3.6297 H   0  0  0  0  0  0  0  0  0  0  0  0
    5.1765   -3.9631   -3.8898 H   0  0  0  0  0  0  0  0  0  0  0  0
    3.7307   -3.1815   -3.2420 H   0  0  0  0  0  0  0  0  0  0  0  0
    5.9100   -3.8499    0.4533 H   0  0  0  0  0  0  0  0  0  0  0  0
    7.0325   -3.5590    2.5364 H   0  0  0  0  0  0  0  0  0  0  0  0
    5.5068   -4.5185    2.6805 H   0  0  0  0  0  0  0  0  0  0  0  0
    6.1972   -3.7032    4.0886 H   0  0  0  0  0  0  0  0  0  0  0  0
    3.9356   -0.4179    2.1407 H   0  0  0  0  0  0  0  0  0  0  0  0
   -0.6073   -3.0526    0.7075 H   0  0  0  0  0  0  0  0  0  0  0  0
  1  2  2  0
  2  3  1  0
  3  4  1  0
  4  5  2  0
  5  6  1  0
  6  7  2  0
  7  8  1  0
  8  9  1  0
  9 10  2  0
 10 11  1  0
 11 12  2  0
  8 13  2  0
 13 14  1  0
 14 15  2  0
 15 16  1  0
 16 17  1  0
 17 18  2  0
 18 19  1  0
 19 20  1  0
 20 21  1  0
 19 22  2  0
 22 23  1  0
 23 24  1  0
 24 25  1  0
 23 26  2  0
 16 27  2  0
 27 28  1  0
 28 29  2  0
 29 30  1  0
 30 31  2  0
 31 32  1  0
 32 33  2  0
 15 34  1  0
  5 35  1  0
 35 36  2  0
 36 37  1  0
 37 38  1  0
 38 39  1  0
 37 40  2  0
 40 41  1  0
 41 42  1  0
 42 43  1  0
 41 44  2  0
  2 45  1  0
 34  2  1  0
 13  4  1  0
 12  7  1  0
 33 14  1  0
 26 17  1  0
 33 28  1  0
 44 35  1  0
  6 46  1  0
  9 47  1  0
 10 48  1  0
 11 49  1  0
 12 50  1  0
 18 51  1  0
 21 52  1  0
 21 53  1  0
 21 54  1  0
 22 55  1  0
 25 56  1  0
 25 57  1  0
 25 58  1  0
 26 59  1  0
 27 60  1  0
 29 61  1  0
 30 62  1  0
 31 63  1  0
 32 64  1  0
 36 65  1  0
 39 66  1  0
 39 67  1  0
 39 68  1  0
 40 69  1  0
 43 70  1  0
 43 71  1  0
 43 72  1  0
 44 73  1  0
 45 74  1  0
M  END
