
     RDKit          3D

 64 70  0  0  0  0  0  0  0  0999 V2000
    0.8280    2.7411    0.9522 O   0  0  0  0  0  0  0  0  0  0  0  0
    0.1533    1.7485    0.0575 P   0  0  0  0  0  5  0  0  0  0  0  0
   -1.0066    0.8844    0.7644 O   0  0  0  0  0  0  0  0  0  0  0  0
   -1.5501   -0.1841    0.0851 C   0  0  0  0  0  0  0  0  0  0  0  0
   -2.9001   -0.0656   -0.2926 C   0  0  0  0  0  0  0  0  0  0  0  0
   -3.4867   -1.1454   -0.9546 C   0  0  0  0  0  0  0  0  0  0  0  0
   -2.7570   -2.2961   -1.2669 C   0  0  0  0  0  0  0  0  0  0  0  0
   -1.3919   -2.4022   -0.8873 C   0  0  0  0  0  0  0  0  0  0  0  0
   -0.7075   -3.5611   -1.3370 C   0  0  0  0  0  0  0  0  0  0  0  0
   -1.3415   -4.5815   -2.0515 C   0  0  0  0  0  0  0  0  0  0  0  0
   -2.6867   -4.4716   -2.3624 C   0  0  0  0  0  0  0  0  0  0  0  0
   -3.3869   -3.3318   -1.9784 C   0  0  0  0  0  0  0  0  0  0  0  0
   -0.7629   -1.3427   -0.1363 C   0  0  0  0  0  0  0  0  0  0  0  0
    0.5910   -1.4158    0.3769 C   0  0  0  0  0  0  0  0  0  0  0  0
    1.5270   -0.4012    0.0537 C   0  0  0  0  0  0  0  0  0  0  0  0
    2.8911   -0.4628    0.3834 C   0  0  0  0  0  0  0  0  0  0  0  0
    3.8461    0.5725   -0.0299 C   0  0  0  0  0  0  0  0  0  0  0  0
    4.6164    0.4106   -1.1903 C   0  0  0  0  0  0  0  0  0  0  0  0
    5.5275    1.3936   -1.5874 C   0  0  0  0  0  0  0  0  0  0  0  0
    5.6931    2.5609   -0.8279 C   0  0  0  0  0  0  0  0  0  0  0  0
    6.6595    3.6293   -1.2749 C   0  0  0  0  0  0  0  0  0  0  0  0
    6.1439    4.4191   -2.2578 F   0  0  0  0  0  0  0  0  0  0  0  0
    7.0350    4.4745   -0.2733 F   0  0  0  0  0  0  0  0  0  0  0  0
    7.8182    3.1160   -1.7784 F   0  0  0  0  0  0  0  0  0  0  0  0
    4.9197    2.7277    0.3292 C   0  0  0  0  0  0  0  0  0  0  0  0
    4.0115    1.7415    0.7253 C   0  0  0  0  0  0  0  0  0  0  0  0
    3.3383   -1.5598    1.1205 C   0  0  0  0  0  0  0  0  0  0  0  0
    2.4576   -2.5569    1.5498 C   0  0  0  0  0  0  0  0  0  0  0  0
    2.9489   -3.6114    2.3381 C   0  0  0  0  0  0  0  0  0  0  0  0
    2.1000   -4.5990    2.8294 C   0  0  0  0  0  0  0  0  0  0  0  0
    0.7449   -4.5352    2.5485 C   0  0  0  0  0  0  0  0  0  0  0  0
    0.2467   -3.4952    1.7589 C   0  0  0  0  0  0  0  0  0  0  0  0
    1.0809   -2.4908    1.2043 C   0  0  0  0  0  0  0  0  0  0  0  0
    1.1101    0.6858   -0.6833 O   0  0  0  0  0  0  0  0  0  0  0  0
   -3.6913    1.1469   -0.0224 C   0  0  0  0  0  0  0  0  0  0  0  0
   -4.1755    1.9356   -1.0775 C   0  0  0  0  0  0  0  0  0  0  0  0
   -4.9245    3.0898   -0.8283 C   0  0  0  0  0  0  0  0  0  0  0  0
   -5.2147    3.4809    0.4864 C   0  0  0  0  0  0  0  0  0  0  0  0
   -6.0051    4.7385    0.7545 C   0  0  0  0  0  0  0  0  0  0  0  0
   -6.6546    4.7214    1.9517 F   0  0  0  0  0  0  0  0  0  0  0  0
   -5.2161    5.8481    0.7712 F   0  0  0  0  0  0  0  0  0  0  0  0
   -6.9634    4.9749   -0.1848 F   0  0  0  0  0  0  0  0  0  0  0  0
   -4.7255    2.7022    1.5443 C   0  0  0  0  0  0  0  0  0  0  0  0
   -3.9776    1.5481    1.2911 C   0  0  0  0  0  0  0  0  0  0  0  0
   -0.6071    2.4834   -1.1550 O   0  0  0  0  0  0  0  0  0  0  0  0
   -4.5339   -1.0758   -1.2480 H   0  0  0  0  0  0  0  0  0  0  0  0
    0.3570   -3.6841   -1.1449 H   0  0  0  0  0  0  0  0  0  0  0  0
   -0.7757   -5.4546   -2.3663 H   0  0  0  0  0  0  0  0  0  0  0  0
   -3.1870   -5.2601   -2.9181 H   0  0  0  0  0  0  0  0  0  0  0  0
   -4.4367   -3.2520   -2.2549 H   0  0  0  0  0  0  0  0  0  0  0  0
    4.5023   -0.4848   -1.7988 H   0  0  0  0  0  0  0  0  0  0  0  0
    6.1076    1.2454   -2.4973 H   0  0  0  0  0  0  0  0  0  0  0  0
    5.0147    3.6307    0.9308 H   0  0  0  0  0  0  0  0  0  0  0  0
    3.4198    1.8994    1.6263 H   0  0  0  0  0  0  0  0  0  0  0  0
    4.3938   -1.6181    1.3853 H   0  0  0  0  0  0  0  0  0  0  0  0
    4.0066   -3.6652    2.5901 H   0  0  0  0  0  0  0  0  0  0  0  0
    2.4952   -5.4040    3.4430 H   0  0  0  0  0  0  0  0  0  0  0  0
    0.0674   -5.2874    2.9445 H   0  0  0  0  0  0  0  0  0  0  0  0
   -0.8287   -3.4751    1.5904 H   0  0  0  0  0  0  0  0  0  0  0  0
   -3.9597    1.6574   -2.1084 H   0  0  0  0  0  0  0  0  0  0  0  0
   -5.2839    3.6829   -1.6685 H   0  0  0  0  0  0  0  0  0  0  0  0
   -4.9271    2.9881    2.5760 H   0  0  0  0  0  0  0  0  0  0  0  0
   -3.6143    0.9581    2.1315 H   0  0  0  0  0  0  0  0  0  0  0  0
   -0.9727    3.3337   -0.8507 H   0  0  0  0  0  0  0  0  0  0  0  0
  1  2  2  0
  2  3  1  0
  3  4  1  0
  4  5  2  0
  5  6  1  0
  6  7  2  0
  7  8  1  0
  8  9  1  0
  9 10  2  0
 10 11  1  0
 11 12  2  0
  8 13  2  0
 13 14  1  0
 14 15  2  0
 15 16  1  0
 16 17  1  0
 17 18  2  0
 18 19  1  0
 19 20  2  0
 20 21  1  0
 21 22  1  0
 21 23  1  0
 21 24  1  0
 20 25  1  0
 25 26  2  0
 16 27  2  0
 27 28  1  0
 28 29  2  0
 29 30  1  0
 30 31  2  0
 31 32  1  0
 32 33  2  0
 15 34  1  0
  5 35  1  0
 35 36  2  0
 36 37  1  0
 37 38  2  0
 38 39  1  0
 39 40  1  0
 39 41  1  0
 39 42  1  0
 38 43  1  0
 43 44  2  0
  2 45  1  0
 34  2  1  0
 13  4  1  0
 12  7  1  0
 33 14  1  0
 26 17  1  0
 33 28  1  0
 44 35  1  0
  6 46  1  0
  9 47  1  0
 10 48  1  0
 11 49  1  0
 12 50  1  0
 18 51  1  0
 19 52  1  0
 25 53  1  0
 26 54  1  0
 27 55  1  0
 29 56  1  0
 30 57  1  0
 31 58  1  0
 32 59  1  0
 36 60  1  0
 37 61  1  0
 43 62  1  0
 44 63  1  0
 45 64  1  0
M  END
