
     RDKit          3D

138150  0  0  0  0  0  0  0  0999 V2000
    0.1854    1.4959    0.0160 O   0  0  0  0  0  0  0  0  0  0  0  0
    0.0897    0.0277    0.2903 P   0  0  0  0  0  5  0  0  0  0  0  0
   -1.1866   -0.7070   -0.3599 O   0  0  0  0  0  0  0  0  0  0  0  0
   -1.3232   -2.0704   -0.2509 C   0  0  0  0  0  0  0  0  0  0  0  0
   -2.4670   -2.5314    0.4353 C   0  0  0  0  0  0  0  0  0  0  0  0
   -3.5422   -1.6154    0.8839 C   0  0  0  0  0  0  0  0  0  0  0  0
   -4.5126   -1.1628   -0.0609 C   0  0  0  0  0  0  0  0  0  0  0  0
   -4.5330   -1.6413   -1.5142 C   0  0  0  0  0  0  0  0  0  0  0  0
   -4.1848   -0.5065   -2.4797 C   0  0  0  0  0  0  0  0  0  0  0  0
   -5.8771   -2.2824   -1.8868 C   0  0  0  0  0  0  0  0  0  0  0  0
   -5.4929   -0.2361    0.3447 C   0  0  0  0  0  0  0  0  0  0  0  0
   -5.5562    0.2443    1.6540 C   0  0  0  0  0  0  0  0  0  0  0  0
   -6.5420    1.2848    2.0213 C   0  0  0  0  0  0  0  0  0  0  0  0
   -7.7962    0.9193    2.6034 C   0  0  0  0  0  0  0  0  0  0  0  0
   -8.1774   -0.4159    2.8891 C   0  0  0  0  0  0  0  0  0  0  0  0
   -9.4154   -0.7290    3.4537 C   0  0  0  0  0  0  0  0  0  0  0  0
  -10.3164    0.2848    3.7475 C   0  0  0  0  0  0  0  0  0  0  0  0
   -9.9733    1.6095    3.4779 C   0  0  0  0  0  0  0  0  0  0  0  0
   -8.7299    1.9363    2.9117 C   0  0  0  0  0  0  0  0  0  0  0  0
   -8.4153    3.2754    2.6492 C   0  0  0  0  0  0  0  0  0  0  0  0
   -7.1903    3.6489    2.0841 C   0  0  0  0  0  0  0  0  0  0  0  0
   -6.2338    2.6613    1.7637 C   0  0  0  0  0  0  0  0  0  0  0  0
   -5.0104    3.1040    1.1976 C   0  0  0  0  0  0  0  0  0  0  0  0
   -4.7528    4.4538    0.9482 C   0  0  0  0  0  0  0  0  0  0  0  0
   -5.7095    5.4052    1.2655 C   0  0  0  0  0  0  0  0  0  0  0  0
   -6.9191    5.0072    1.8307 C   0  0  0  0  0  0  0  0  0  0  0  0
   -4.6444   -0.2526    2.5898 C   0  0  0  0  0  0  0  0  0  0  0  0
   -3.6356   -1.1762    2.2374 C   0  0  0  0  0  0  0  0  0  0  0  0
   -2.7096   -1.7017    3.3363 C   0  0  0  0  0  0  0  0  0  0  0  0
   -3.4107   -2.8021    4.1383 C   0  0  0  0  0  0  0  0  0  0  0  0
   -2.2010   -0.6122    4.2909 C   0  0  0  0  0  0  0  0  0  0  0  0
   -2.6193   -3.9070    0.6026 C   0  0  0  0  0  0  0  0  0  0  0  0
   -1.6689   -4.8046    0.1149 C   0  0  0  0  0  0  0  0  0  0  0  0
   -0.5490   -4.3307   -0.6259 C   0  0  0  0  0  0  0  0  0  0  0  0
    0.3889   -5.3119   -1.0308 C   0  0  0  0  0  0  0  0  0  0  0  0
    0.2111   -6.6742   -0.7704 C   0  0  0  0  0  0  0  0  0  0  0  0
   -0.9085   -7.1071   -0.0783 C   0  0  0  0  0  0  0  0  0  0  0  0
   -1.8413   -6.1746    0.3625 C   0  0  0  0  0  0  0  0  0  0  0  0
   -0.3898   -2.9205   -0.8920 C   0  0  0  0  0  0  0  0  0  0  0  0
    0.6045   -2.3675   -1.8037 C   0  0  0  0  0  0  0  0  0  0  0  0
    1.4902   -1.3412   -1.3800 C   0  0  0  0  0  0  0  0  0  0  0  0
    2.5673   -0.8621   -2.1540 C   0  0  0  0  0  0  0  0  0  0  0  0
    3.5726    0.0920   -1.6292 C   0  0  0  0  0  0  0  0  0  0  0  0
    4.7488   -0.4010   -0.9868 C   0  0  0  0  0  0  0  0  0  0  0  0
    5.0554   -1.8965   -0.8636 C   0  0  0  0  0  0  0  0  0  0  0  0
    6.3780   -2.2550   -1.5559 C   0  0  0  0  0  0  0  0  0  0  0  0
    5.0646   -2.3545    0.5954 C   0  0  0  0  0  0  0  0  0  0  0  0
    5.6770    0.5134   -0.4493 C   0  0  0  0  0  0  0  0  0  0  0  0
    5.4875    1.8931   -0.5395 C   0  0  0  0  0  0  0  0  0  0  0  0
    6.4354    2.8267    0.1078 C   0  0  0  0  0  0  0  0  0  0  0  0
    7.4765    3.4458   -0.6530 C   0  0  0  0  0  0  0  0  0  0  0  0
    7.6822    3.2229   -2.0387 C   0  0  0  0  0  0  0  0  0  0  0  0
    8.7063    3.8551   -2.7478 C   0  0  0  0  0  0  0  0  0  0  0  0
    9.5606    4.7287   -2.0915 C   0  0  0  0  0  0  0  0  0  0  0  0
    9.3914    4.9649   -0.7296 C   0  0  0  0  0  0  0  0  0  0  0  0
    8.3652    4.3329   -0.0049 C   0  0  0  0  0  0  0  0  0  0  0  0
    8.2225    4.5861    1.3651 C   0  0  0  0  0  0  0  0  0  0  0  0
    7.2134    3.9847    2.1268 C   0  0  0  0  0  0  0  0  0  0  0  0
    6.2989    3.1043    1.5090 C   0  0  0  0  0  0  0  0  0  0  0  0
    5.2866    2.5426    2.3280 C   0  0  0  0  0  0  0  0  0  0  0  0
    5.1933    2.8249    3.6912 C   0  0  0  0  0  0  0  0  0  0  0  0
    6.1094    3.6835    4.2806 C   0  0  0  0  0  0  0  0  0  0  0  0
    7.1092    4.2628    3.5014 C   0  0  0  0  0  0  0  0  0  0  0  0
    4.3635    2.3685   -1.2205 C   0  0  0  0  0  0  0  0  0  0  0  0
    3.3962    1.5017   -1.7696 C   0  0  0  0  0  0  0  0  0  0  0  0
    2.2182    2.1043   -2.5402 C   0  0  0  0  0  0  0  0  0  0  0  0
    2.5776    2.2667   -4.0197 C   0  0  0  0  0  0  0  0  0  0  0  0
    1.7204    3.4565   -2.0016 C   0  0  0  0  0  0  0  0  0  0  0  0
    2.7245   -1.3744   -3.4418 C   0  0  0  0  0  0  0  0  0  0  0  0
    1.8372   -2.3154   -3.9632 C   0  0  0  0  0  0  0  0  0  0  0  0
    2.0189   -2.7528   -5.2868 C   0  0  0  0  0  0  0  0  0  0  0  0
    1.1421   -3.6613   -5.8713 C   0  0  0  0  0  0  0  0  0  0  0  0
    0.0682   -4.1374   -5.1377 C   0  0  0  0  0  0  0  0  0  0  0  0
   -0.1161   -3.7130   -3.8176 C   0  0  0  0  0  0  0  0  0  0  0  0
    0.7696   -2.8128   -3.1689 C   0  0  0  0  0  0  0  0  0  0  0  0
    1.3803   -0.8528   -0.0979 O   0  0  0  0  0  0  0  0  0  0  0  0
   -0.0268   -0.3025    1.8595 O   0  0  0  0  0  0  0  0  0  0  0  0
   -3.7880   -2.4255   -1.6661 H   0  0  0  0  0  0  0  0  0  0  0  0
   -3.2140   -0.0625   -2.2317 H   0  0  0  0  0  0  0  0  0  0  0  0
   -4.9280    0.2973   -2.4590 H   0  0  0  0  0  0  0  0  0  0  0  0
   -4.1265   -0.8812   -3.5079 H   0  0  0  0  0  0  0  0  0  0  0  0
   -6.7001   -1.5614   -1.8800 H   0  0  0  0  0  0  0  0  0  0  0  0
   -6.1295   -3.0864   -1.1863 H   0  0  0  0  0  0  0  0  0  0  0  0
   -5.8301   -2.7163   -2.8905 H   0  0  0  0  0  0  0  0  0  0  0  0
   -6.2140    0.1429   -0.3795 H   0  0  0  0  0  0  0  0  0  0  0  0
   -7.4991   -1.2392    2.6717 H   0  0  0  0  0  0  0  0  0  0  0  0
   -9.6732   -1.7642    3.6611 H   0  0  0  0  0  0  0  0  0  0  0  0
  -11.2832    0.0489    4.1841 H   0  0  0  0  0  0  0  0  0  0  0  0
  -10.6940    2.3909    3.7148 H   0  0  0  0  0  0  0  0  0  0  0  0
   -9.1422    4.0485    2.8904 H   0  0  0  0  0  0  0  0  0  0  0  0
   -4.2302    2.3906    0.9394 H   0  0  0  0  0  0  0  0  0  0  0  0
   -3.8037    4.7492    0.5104 H   0  0  0  0  0  0  0  0  0  0  0  0
   -5.5150    6.4583    1.0743 H   0  0  0  0  0  0  0  0  0  0  0  0
   -7.6543    5.7705    2.0751 H   0  0  0  0  0  0  0  0  0  0  0  0
   -4.7231    0.1053    3.6143 H   0  0  0  0  0  0  0  0  0  0  0  0
   -1.8167   -2.1415    2.8815 H   0  0  0  0  0  0  0  0  0  0  0  0
   -2.7313   -3.2336    4.8835 H   0  0  0  0  0  0  0  0  0  0  0  0
   -4.2848   -2.4125    4.6723 H   0  0  0  0  0  0  0  0  0  0  0  0
   -3.7551   -3.6144    3.4903 H   0  0  0  0  0  0  0  0  0  0  0  0
   -1.4031   -1.0106    4.9300 H   0  0  0  0  0  0  0  0  0  0  0  0
   -2.9881   -0.2406    4.9568 H   0  0  0  0  0  0  0  0  0  0  0  0
   -1.7952    0.2449    3.7425 H   0  0  0  0  0  0  0  0  0  0  0  0
   -3.5031   -4.2757    1.1227 H   0  0  0  0  0  0  0  0  0  0  0  0
    1.2949   -5.0214   -1.5603 H   0  0  0  0  0  0  0  0  0  0  0  0
    0.9543   -7.3919   -1.1115 H   0  0  0  0  0  0  0  0  0  0  0  0
   -1.0518   -8.1637    0.1261 H   0  0  0  0  0  0  0  0  0  0  0  0
   -2.7061   -6.5327    0.9183 H   0  0  0  0  0  0  0  0  0  0  0  0
    4.2851   -2.4854   -1.3679 H   0  0  0  0  0  0  0  0  0  0  0  0
    7.2426   -1.8287   -1.0379 H   0  0  0  0  0  0  0  0  0  0  0  0
    6.3924   -1.8922   -2.5901 H   0  0  0  0  0  0  0  0  0  0  0  0
    6.5164   -3.3423   -1.5812 H   0  0  0  0  0  0  0  0  0  0  0  0
    5.2136   -3.4393    0.6550 H   0  0  0  0  0  0  0  0  0  0  0  0
    5.8647   -1.8805    1.1734 H   0  0  0  0  0  0  0  0  0  0  0  0
    4.1144   -2.1204    1.0868 H   0  0  0  0  0  0  0  0  0  0  0  0
    6.5643    0.1479    0.0662 H   0  0  0  0  0  0  0  0  0  0  0  0
    7.0321    2.5450   -2.5881 H   0  0  0  0  0  0  0  0  0  0  0  0
    8.8297    3.6638   -3.8105 H   0  0  0  0  0  0  0  0  0  0  0  0
   10.3572    5.2292   -2.6372 H   0  0  0  0  0  0  0  0  0  0  0  0
   10.0727    5.6537   -0.2315 H   0  0  0  0  0  0  0  0  0  0  0  0
    8.9172    5.2699    1.8538 H   0  0  0  0  0  0  0  0  0  0  0  0
    4.5423    1.8712    1.9031 H   0  0  0  0  0  0  0  0  0  0  0  0
    4.4029    2.3736    4.2844 H   0  0  0  0  0  0  0  0  0  0  0  0
    6.0442    3.9059    5.3421 H   0  0  0  0  0  0  0  0  0  0  0  0
    7.8150    4.9374    3.9818 H   0  0  0  0  0  0  0  0  0  0  0  0
    4.2447    3.4464   -1.3047 H   0  0  0  0  0  0  0  0  0  0  0  0
    1.3619    1.4241   -2.4702 H   0  0  0  0  0  0  0  0  0  0  0  0
    1.7276    2.6701   -4.5805 H   0  0  0  0  0  0  0  0  0  0  0  0
    3.4235    2.9512   -4.1511 H   0  0  0  0  0  0  0  0  0  0  0  0
    2.8531    1.3139   -4.4808 H   0  0  0  0  0  0  0  0  0  0  0  0
    1.5771    3.4354   -0.9178 H   0  0  0  0  0  0  0  0  0  0  0  0
    0.7621    3.7181   -2.4633 H   0  0  0  0  0  0  0  0  0  0  0  0
    2.4175    4.2678   -2.2310 H   0  0  0  0  0  0  0  0  0  0  0  0
    3.5591   -1.0182   -4.0436 H   0  0  0  0  0  0  0  0  0  0  0  0
    2.8434   -2.3687   -5.8862 H   0  0  0  0  0  0  0  0  0  0  0  0
    1.2935   -3.9835   -6.8973 H   0  0  0  0  0  0  0  0  0  0  0  0
   -0.6340   -4.8336   -5.5862 H   0  0  0  0  0  0  0  0  0  0  0  0
   -0.9933   -4.0966   -3.3007 H   0  0  0  0  0  0  0  0  0  0  0  0
    0.0812   -1.2537    2.0335 H   0  0  0  0  0  0  0  0  0  0  0  0
  1  2  2  0
  2  3  1  0
  3  4  1  0
  4  5  2  0
  5  6  1  0
  6  7  2  0
  7  8  1  0
  8  9  1  0
  8 10  1  0
  7 11  1  0
 11 12  2  0
 12 13  1  0
 13 14  1  0
 14 15  2  0
 15 16  1  0
 16 17  2  0
 17 18  1  0
 14 19  1  0
 19 20  1  0
 20 21  2  0
 21 22  1  0
 22 23  1  0
 23 24  2  0
 24 25  1  0
 25 26  2  0
 12 27  1  0
 27 28  2  0
 28 29  1  0
 29 30  1  0
 29 31  1  0
  5 32  1  0
 32 33  2  0
 33 34  1  0
 34 35  1  0
 35 36  2  0
 36 37  1  0
 37 38  2  0
 34 39  2  0
 39 40  1  0
 40 41  2  0
 41 42  1  0
 42 43  1  0
 43 44  2  0
 44 45  1  0
 45 46  1  0
 45 47  1  0
 44 48  1  0
 48 49  2  0
 49 50  1  0
 50 51  1  0
 51 52  2  0
 52 53  1  0
 53 54  2  0
 54 55  1  0
 51 56  1  0
 56 57  1  0
 57 58  2  0
 58 59  1  0
 59 60  1  0
 60 61  2  0
 61 62  1  0
 62 63  2  0
 49 64  1  0
 64 65  2  0
 65 66  1  0
 66 67  1  0
 66 68  1  0
 42 69  2  0
 69 70  1  0
 70 71  2  0
 71 72  1  0
 72 73  2  0
 73 74  1  0
 74 75  2  0
 41 76  1  0
  2 77  1  0
 76  2  1  0
 39  4  1  0
 28  6  1  0
 22 13  2  0
 19 18  2  0
 26 21  1  0
 38 33  1  0
 75 40  1  0
 65 43  1  0
 59 50  2  0
 56 55  2  0
 63 58  1  0
 75 70  1  0
  8 78  1  0
  9 79  1  0
  9 80  1  0
  9 81  1  0
 10 82  1  0
 10 83  1  0
 10 84  1  0
 11 85  1  0
 15 86  1  0
 16 87  1  0
 17 88  1  0
 18 89  1  0
 20 90  1  0
 23 91  1  0
 24 92  1  0
 25 93  1  0
 26 94  1  0
 27 95  1  0
 29 96  1  0
 30 97  1  0
 30 98  1  0
 30 99  1  0
 31100  1  0
 31101  1  0
 31102  1  0
 32103  1  0
 35104  1  0
 36105  1  0
 37106  1  0
 38107  1  0
 45108  1  0
 46109  1  0
 46110  1  0
 46111  1  0
 47112  1  0
 47113  1  0
 47114  1  0
 48115  1  0
 52116  1  0
 53117  1  0
 54118  1  0
 55119  1  0
 57120  1  0
 60121  1  0
 61122  1  0
 62123  1  0
 63124  1  0
 64125  1  0
 66126  1  0
 67127  1  0
 67128  1  0
 67129  1  0
 68130  1  0
 68131  1  0
 68132  1  0
 69133  1  0
 71134  1  0
 72135  1  0
 73136  1  0
 74137  1  0
 77138  1  0
M  END
