
     RDKit          3D

122136  0  0  0  0  0  0  0  0999 V2000
    0.7229    0.6481   -1.1106 O   0  0  0  0  0  0  0  0  0  0  0  0
    0.2334    0.0181    0.1597 P   0  0  0  0  0  5  0  0  0  0  0  0
   -1.0299    0.7523    0.8391 O   0  0  0  0  0  0  0  0  0  0  0  0
   -1.4409    0.3343    2.0881 C   0  0  0  0  0  0  0  0  0  0  0  0
   -2.7158   -0.2567    2.1751 C   0  0  0  0  0  0  0  0  0  0  0  0
   -3.1217   -0.7211    3.4280 C   0  0  0  0  0  0  0  0  0  0  0  0
   -2.3038   -0.6122    4.5585 C   0  0  0  0  0  0  0  0  0  0  0  0
   -1.0393    0.0272    4.4633 C   0  0  0  0  0  0  0  0  0  0  0  0
   -0.2550    0.0453    5.6434 C   0  0  0  0  0  0  0  0  0  0  0  0
   -0.7077   -0.4842    6.8555 C   0  0  0  0  0  0  0  0  0  0  0  0
   -1.9572   -1.0762    6.9261 C   0  0  0  0  0  0  0  0  0  0  0  0
   -2.7469   -1.1438    5.7817 C   0  0  0  0  0  0  0  0  0  0  0  0
   -0.5978    0.5682    3.2034 C   0  0  0  0  0  0  0  0  0  0  0  0
    0.6297    1.3239    3.0445 C   0  0  0  0  0  0  0  0  0  0  0  0
    1.6189    0.8861    2.1274 C   0  0  0  0  0  0  0  0  0  0  0  0
    2.9070    1.4464    2.0315 C   0  0  0  0  0  0  0  0  0  0  0  0
    3.9714    0.9000    1.1603 C   0  0  0  0  0  0  0  0  0  0  0  0
    4.2611   -0.4746    1.1396 C   0  0  0  0  0  0  0  0  0  0  0  0
    5.2824   -1.0095    0.3368 C   0  0  0  0  0  0  0  0  0  0  0  0
    5.5079   -2.4638    0.2970 C   0  0  0  0  0  0  0  0  0  0  0  0
    5.0323   -3.2741   -0.7758 C   0  0  0  0  0  0  0  0  0  0  0  0
    4.3093   -2.7638   -1.8830 C   0  0  0  0  0  0  0  0  0  0  0  0
    3.8687   -3.5892   -2.9200 C   0  0  0  0  0  0  0  0  0  0  0  0
    4.1311   -4.9508   -2.8757 C   0  0  0  0  0  0  0  0  0  0  0  0
    4.8293   -5.4862   -1.7923 C   0  0  0  0  0  0  0  0  0  0  0  0
    5.2852   -4.6688   -0.7449 C   0  0  0  0  0  0  0  0  0  0  0  0
    5.9820   -5.2289    0.3359 C   0  0  0  0  0  0  0  0  0  0  0  0
    6.4376   -4.4333    1.3835 C   0  0  0  0  0  0  0  0  0  0  0  0
    6.2036   -3.0630    1.3637 C   0  0  0  0  0  0  0  0  0  0  0  0
    6.0603   -0.1369   -0.4328 C   0  0  0  0  0  0  0  0  0  0  0  0
    5.8078    1.2401   -0.4383 C   0  0  0  0  0  0  0  0  0  0  0  0
    6.6362    2.1469   -1.2495 C   0  0  0  0  0  0  0  0  0  0  0  0
    6.4012    2.3641   -2.6384 C   0  0  0  0  0  0  0  0  0  0  0  0
    5.3450    1.7550   -3.3581 C   0  0  0  0  0  0  0  0  0  0  0  0
    5.1545    1.9855   -4.7211 C   0  0  0  0  0  0  0  0  0  0  0  0
    6.0109    2.8370   -5.4057 C   0  0  0  0  0  0  0  0  0  0  0  0
    7.0569    3.4591   -4.7251 C   0  0  0  0  0  0  0  0  0  0  0  0
    7.2634    3.2362   -3.3531 C   0  0  0  0  0  0  0  0  0  0  0  0
    8.3215    3.8717   -2.6906 C   0  0  0  0  0  0  0  0  0  0  0  0
    8.5418    3.6636   -1.3311 C   0  0  0  0  0  0  0  0  0  0  0  0
    7.7048    2.8096   -0.6190 C   0  0  0  0  0  0  0  0  0  0  0  0
    4.7579    1.7405    0.3505 C   0  0  0  0  0  0  0  0  0  0  0  0
    3.1772    2.5552    2.8422 C   0  0  0  0  0  0  0  0  0  0  0  0
    2.2174    3.1041    3.6978 C   0  0  0  0  0  0  0  0  0  0  0  0
    2.5375    4.2508    4.4465 C   0  0  0  0  0  0  0  0  0  0  0  0
    1.6028    4.8450    5.2894 C   0  0  0  0  0  0  0  0  0  0  0  0
    0.3298    4.3057    5.3814 C   0  0  0  0  0  0  0  0  0  0  0  0
    0.0031    3.1633    4.6460 C   0  0  0  0  0  0  0  0  0  0  0  0
    0.9355    2.5078    3.8022 C   0  0  0  0  0  0  0  0  0  0  0  0
    1.3309   -0.1904    1.3178 O   0  0  0  0  0  0  0  0  0  0  0  0
   -3.6321   -0.3668    1.0176 C   0  0  0  0  0  0  0  0  0  0  0  0
   -4.2402   -1.5870    0.6751 C   0  0  0  0  0  0  0  0  0  0  0  0
   -5.1519   -1.6858   -0.3927 C   0  0  0  0  0  0  0  0  0  0  0  0
   -5.7943   -2.9717   -0.7180 C   0  0  0  0  0  0  0  0  0  0  0  0
   -6.8466   -3.4160    0.1047 C   0  0  0  0  0  0  0  0  0  0  0  0
   -7.4998   -4.6167   -0.1529 C   0  0  0  0  0  0  0  0  0  0  0  0
   -7.1119   -5.3958   -1.2381 C   0  0  0  0  0  0  0  0  0  0  0  0
   -6.0658   -4.9897   -2.0811 C   0  0  0  0  0  0  0  0  0  0  0  0
   -5.3894   -3.7679   -1.8286 C   0  0  0  0  0  0  0  0  0  0  0  0
   -4.3380   -3.4093   -2.7056 C   0  0  0  0  0  0  0  0  0  0  0  0
   -3.9740   -4.2171   -3.7861 C   0  0  0  0  0  0  0  0  0  0  0  0
   -4.6475   -5.4080   -4.0179 C   0  0  0  0  0  0  0  0  0  0  0  0
   -5.6861   -5.7905   -3.1723 C   0  0  0  0  0  0  0  0  0  0  0  0
   -5.4443   -0.5343   -1.1386 C   0  0  0  0  0  0  0  0  0  0  0  0
   -4.8462    0.6969   -0.8335 C   0  0  0  0  0  0  0  0  0  0  0  0
   -5.1320    1.8979   -1.6316 C   0  0  0  0  0  0  0  0  0  0  0  0
   -4.2460    2.2229   -2.6738 C   0  0  0  0  0  0  0  0  0  0  0  0
   -4.4414    3.3583   -3.4532 C   0  0  0  0  0  0  0  0  0  0  0  0
   -5.5249    4.1925   -3.1991 C   0  0  0  0  0  0  0  0  0  0  0  0
   -6.4319    3.9028   -2.1692 C   0  0  0  0  0  0  0  0  0  0  0  0
   -6.2489    2.7450   -1.3720 C   0  0  0  0  0  0  0  0  0  0  0  0
   -7.1937    2.5014   -0.3451 C   0  0  0  0  0  0  0  0  0  0  0  0
   -8.2671    3.3635   -0.1168 C   0  0  0  0  0  0  0  0  0  0  0  0
   -8.4283    4.4931   -0.9067 C   0  0  0  0  0  0  0  0  0  0  0  0
   -7.5170    4.7606   -1.9264 C   0  0  0  0  0  0  0  0  0  0  0  0
   -3.9554    0.7643    0.2479 C   0  0  0  0  0  0  0  0  0  0  0  0
   -0.2996   -1.4726   -0.1215 O   0  0  0  0  0  0  0  0  0  0  0  0
   -4.1019   -1.1851    3.5242 H   0  0  0  0  0  0  0  0  0  0  0  0
    0.7432    0.4740    5.6381 H   0  0  0  0  0  0  0  0  0  0  0  0
   -0.0727   -0.4350    7.7371 H   0  0  0  0  0  0  0  0  0  0  0  0
   -2.3117   -1.4974    7.8621 H   0  0  0  0  0  0  0  0  0  0  0  0
   -3.7156   -1.6331    5.8533 H   0  0  0  0  0  0  0  0  0  0  0  0
    3.6773   -1.1564    1.7586 H   0  0  0  0  0  0  0  0  0  0  0  0
    4.0812   -1.7025   -1.9514 H   0  0  0  0  0  0  0  0  0  0  0  0
    3.3224   -3.1636   -3.7571 H   0  0  0  0  0  0  0  0  0  0  0  0
    3.7869   -5.5991   -3.6760 H   0  0  0  0  0  0  0  0  0  0  0  0
    5.0158   -6.5581   -1.7751 H   0  0  0  0  0  0  0  0  0  0  0  0
    6.1783   -6.2981    0.3696 H   0  0  0  0  0  0  0  0  0  0  0  0
    6.9727   -4.8824    2.2174 H   0  0  0  0  0  0  0  0  0  0  0  0
    6.5620   -2.4530    2.1919 H   0  0  0  0  0  0  0  0  0  0  0  0
    6.8621   -0.5399   -1.0500 H   0  0  0  0  0  0  0  0  0  0  0  0
    4.6471    1.0880   -2.8518 H   0  0  0  0  0  0  0  0  0  0  0  0
    4.3328    1.5013   -5.2428 H   0  0  0  0  0  0  0  0  0  0  0  0
    5.8633    3.0228   -6.4674 H   0  0  0  0  0  0  0  0  0  0  0  0
    7.7112    4.1294   -5.2796 H   0  0  0  0  0  0  0  0  0  0  0  0
    8.9895    4.5407   -3.2299 H   0  0  0  0  0  0  0  0  0  0  0  0
    9.3662    4.1636   -0.8276 H   0  0  0  0  0  0  0  0  0  0  0  0
    7.8954    2.6478    0.4409 H   0  0  0  0  0  0  0  0  0  0  0  0
    4.5512    2.8101    0.3228 H   0  0  0  0  0  0  0  0  0  0  0  0
    4.1667    3.0082    2.8039 H   0  0  0  0  0  0  0  0  0  0  0  0
    3.5242    4.7023    4.3717 H   0  0  0  0  0  0  0  0  0  0  0  0
    1.8641    5.7349    5.8558 H   0  0  0  0  0  0  0  0  0  0  0  0
   -0.4182    4.7699    6.0216 H   0  0  0  0  0  0  0  0  0  0  0  0
   -1.0151    2.7910    4.7372 H   0  0  0  0  0  0  0  0  0  0  0  0
   -3.9978   -2.4849    1.2438 H   0  0  0  0  0  0  0  0  0  0  0  0
   -7.1645   -2.8140    0.9561 H   0  0  0  0  0  0  0  0  0  0  0  0
   -8.3111   -4.9451    0.4912 H   0  0  0  0  0  0  0  0  0  0  0  0
   -7.6353   -6.3314   -1.4234 H   0  0  0  0  0  0  0  0  0  0  0  0
   -3.7843   -2.4853   -2.5537 H   0  0  0  0  0  0  0  0  0  0  0  0
   -3.1624   -3.9110   -4.4429 H   0  0  0  0  0  0  0  0  0  0  0  0
   -4.3674   -6.0397   -4.8562 H   0  0  0  0  0  0  0  0  0  0  0  0
   -6.2001   -6.7283   -3.3699 H   0  0  0  0  0  0  0  0  0  0  0  0
   -6.1443   -0.5966   -1.9719 H   0  0  0  0  0  0  0  0  0  0  0  0
   -3.3876    1.5844   -2.8790 H   0  0  0  0  0  0  0  0  0  0  0  0
   -3.7413    3.5975   -4.2515 H   0  0  0  0  0  0  0  0  0  0  0  0
   -5.6547    5.0806   -3.8145 H   0  0  0  0  0  0  0  0  0  0  0  0
   -7.0960    1.6281    0.2966 H   0  0  0  0  0  0  0  0  0  0  0  0
   -8.9755    3.1481    0.6821 H   0  0  0  0  0  0  0  0  0  0  0  0
   -9.2617    5.1670   -0.7322 H   0  0  0  0  0  0  0  0  0  0  0  0
   -7.6617    5.6511   -2.5337 H   0  0  0  0  0  0  0  0  0  0  0  0
   -3.5100    1.7282    0.4971 H   0  0  0  0  0  0  0  0  0  0  0  0
   -0.5625   -1.5624   -1.0545 H   0  0  0  0  0  0  0  0  0  0  0  0
  1  2  2  0
  2  3  1  0
  3  4  1  0
  4  5  2  0
  5  6  1  0
  6  7  2  0
  7  8  1  0
  8  9  1  0
  9 10  2  0
 10 11  1  0
 11 12  2  0
  8 13  2  0
 13 14  1  0
 14 15  2  0
 15 16  1  0
 16 17  1  0
 17 18  2  0
 18 19  1  0
 19 20  1  0
 20 21  1  0
 21 22  2  0
 22 23  1  0
 23 24  2  0
 24 25  1  0
 21 26  1  0
 26 27  1  0
 27 28  2  0
 28 29  1  0
 19 30  2  0
 30 31  1  0
 31 32  1  0
 32 33  1  0
 33 34  2  0
 34 35  1  0
 35 36  2  0
 36 37  1  0
 33 38  1  0
 38 39  1  0
 39 40  2  0
 40 41  1  0
 31 42  2  0
 16 43  2  0
 43 44  1  0
 44 45  2  0
 45 46  1  0
 46 47  2  0
 47 48  1  0
 48 49  2  0
 15 50  1  0
  5 51  1  0
 51 52  2  0
 52 53  1  0
 53 54  1  0
 54 55  2  0
 55 56  1  0
 56 57  2  0
 57 58  1  0
 58 59  2  0
 59 60  1  0
 60 61  2  0
 61 62  1  0
 62 63  2  0
 53 64  2  0
 64 65  1  0
 65 66  1  0
 66 67  2  0
 67 68  1  0
 68 69  2  0
 69 70  1  0
 70 71  2  0
 71 72  1  0
 72 73  2  0
 73 74  1  0
 74 75  2  0
 65 76  2  0
  2 77  1  0
 50  2  1  0
 13  4  1  0
 12  7  1  0
 49 14  1  0
 42 17  1  0
 29 20  2  0
 26 25  2  0
 41 32  2  0
 38 37  2  0
 49 44  1  0
 76 51  1  0
 59 54  1  0
 63 58  1  0
 71 66  1  0
 75 70  1  0
  6 78  1  0
  9 79  1  0
 10 80  1  0
 11 81  1  0
 12 82  1  0
 18 83  1  0
 22 84  1  0
 23 85  1  0
 24 86  1  0
 25 87  1  0
 27 88  1  0
 28 89  1  0
 29 90  1  0
 30 91  1  0
 34 92  1  0
 35 93  1  0
 36 94  1  0
 37 95  1  0
 39 96  1  0
 40 97  1  0
 41 98  1  0
 42 99  1  0
 43100  1  0
 45101  1  0
 46102  1  0
 47103  1  0
 48104  1  0
 52105  1  0
 55106  1  0
 56107  1  0
 57108  1  0
 60109  1  0
 61110  1  0
 62111  1  0
 63112  1  0
 64113  1  0
 67114  1  0
 68115  1  0
 69116  1  0
 72117  1  0
 73118  1  0
 74119  1  0
 75120  1  0
 76121  1  0
 77122  1  0
M  END
