
     RDKit          3D

 82 92  0  0  0  0  0  0  0  0999 V2000
    0.6864    0.9411   -2.1680 O   0  0  0  0  0  0  0  0  0  0  0  0
    0.1215    0.8956   -0.7832 P   0  0  0  0  0  5  0  0  0  0  0  0
    1.1637    0.5720    0.3989 O   0  0  0  0  0  0  0  0  0  0  0  0
    1.5241   -0.7453    0.5660 C   0  0  0  0  0  0  0  0  0  0  0  0
    2.8547   -1.0812    0.2608 C   0  0  0  0  0  0  0  0  0  0  0  0
    3.2485   -2.4099    0.4255 C   0  0  0  0  0  0  0  0  0  0  0  0
    2.3428   -3.3902    0.8373 C   0  0  0  0  0  0  0  0  0  0  0  0
    1.0006   -3.0391    1.1457 C   0  0  0  0  0  0  0  0  0  0  0  0
    0.1312   -4.1134    1.4640 C   0  0  0  0  0  0  0  0  0  0  0  0
    0.5698   -5.4382    1.5442 C   0  0  0  0  0  0  0  0  0  0  0  0
    1.8963   -5.7420    1.2852 C   0  0  0  0  0  0  0  0  0  0  0  0
    2.7753   -4.7240    0.9273 C   0  0  0  0  0  0  0  0  0  0  0  0
    0.5740   -1.6624    1.0794 C   0  0  0  0  0  0  0  0  0  0  0  0
   -0.7251   -1.1934    1.5271 C   0  0  0  0  0  0  0  0  0  0  0  0
   -1.5546   -0.4267    0.6685 C   0  0  0  0  0  0  0  0  0  0  0  0
   -2.8707   -0.0477    0.9899 C   0  0  0  0  0  0  0  0  0  0  0  0
   -3.7216    0.7110    0.0501 C   0  0  0  0  0  0  0  0  0  0  0  0
   -3.6431    2.1115    0.0868 C   0  0  0  0  0  0  0  0  0  0  0  0
   -4.3944    2.9166   -0.7690 C   0  0  0  0  0  0  0  0  0  0  0  0
   -5.2802    2.3216   -1.6970 C   0  0  0  0  0  0  0  0  0  0  0  0
   -6.0061    3.2129   -2.5302 C   0  0  0  0  0  0  0  0  0  0  0  0
   -5.8605    4.6022   -2.4529 C   0  0  0  0  0  0  0  0  0  0  0  0
   -4.9814    5.1545   -1.5352 C   0  0  0  0  0  0  0  0  0  0  0  0
   -4.2550    4.3141   -0.6981 C   0  0  0  0  0  0  0  0  0  0  0  0
   -5.3889    0.8850   -1.7461 C   0  0  0  0  0  0  0  0  0  0  0  0
   -4.6008    0.0843   -0.8702 C   0  0  0  0  0  0  0  0  0  0  0  0
   -4.7174   -1.3259   -0.9444 C   0  0  0  0  0  0  0  0  0  0  0  0
   -5.5799   -1.9549   -1.8397 C   0  0  0  0  0  0  0  0  0  0  0  0
   -6.3530   -1.1865   -2.6891 C   0  0  0  0  0  0  0  0  0  0  0  0
   -6.2565    0.2058   -2.6420 C   0  0  0  0  0  0  0  0  0  0  0  0
   -3.3730   -0.4021    2.2418 C   0  0  0  0  0  0  0  0  0  0  0  0
   -2.5898   -1.0914    3.1691 C   0  0  0  0  0  0  0  0  0  0  0  0
   -3.1315   -1.3850    4.4325 C   0  0  0  0  0  0  0  0  0  0  0  0
   -2.3731   -2.0218    5.4099 C   0  0  0  0  0  0  0  0  0  0  0  0
   -1.0565   -2.3563    5.1398 C   0  0  0  0  0  0  0  0  0  0  0  0
   -0.5111   -2.0757    3.8833 C   0  0  0  0  0  0  0  0  0  0  0  0
   -1.2602   -1.4712    2.8400 C   0  0  0  0  0  0  0  0  0  0  0  0
   -1.1246   -0.1017   -0.5984 O   0  0  0  0  0  0  0  0  0  0  0  0
    3.8387   -0.0750   -0.1915 C   0  0  0  0  0  0  0  0  0  0  0  0
    4.2148    0.0823   -1.5502 C   0  0  0  0  0  0  0  0  0  0  0  0
    5.1869    1.0633   -1.9011 C   0  0  0  0  0  0  0  0  0  0  0  0
    5.5263    1.1779   -3.2743 C   0  0  0  0  0  0  0  0  0  0  0  0
    4.9440    0.3852   -4.2658 C   0  0  0  0  0  0  0  0  0  0  0  0
    3.9957   -0.5568   -3.9173 C   0  0  0  0  0  0  0  0  0  0  0  0
    3.6392   -0.7052   -2.5789 C   0  0  0  0  0  0  0  0  0  0  0  0
    5.7747    1.8918   -0.8791 C   0  0  0  0  0  0  0  0  0  0  0  0
    5.3748    1.7142    0.4652 C   0  0  0  0  0  0  0  0  0  0  0  0
    5.9260    2.5028    1.4906 C   0  0  0  0  0  0  0  0  0  0  0  0
    6.8782    3.4795    1.2157 C   0  0  0  0  0  0  0  0  0  0  0  0
    7.2904    3.6788   -0.0912 C   0  0  0  0  0  0  0  0  0  0  0  0
    6.7472    2.8996   -1.1182 C   0  0  0  0  0  0  0  0  0  0  0  0
    4.4240    0.7444    0.7857 C   0  0  0  0  0  0  0  0  0  0  0  0
   -0.4585    2.3404   -0.3775 O   0  0  0  0  0  0  0  0  0  0  0  0
    4.2792   -2.6830    0.1982 H   0  0  0  0  0  0  0  0  0  0  0  0
   -0.9262   -3.9303    1.6474 H   0  0  0  0  0  0  0  0  0  0  0  0
   -0.1320   -6.2264    1.8041 H   0  0  0  0  0  0  0  0  0  0  0  0
    2.2439   -6.7697    1.3460 H   0  0  0  0  0  0  0  0  0  0  0  0
    3.8089   -4.9854    0.7061 H   0  0  0  0  0  0  0  0  0  0  0  0
   -2.9601    2.5767    0.7982 H   0  0  0  0  0  0  0  0  0  0  0  0
   -6.7086    2.8378   -3.2690 H   0  0  0  0  0  0  0  0  0  0  0  0
   -6.4353    5.2454   -3.1141 H   0  0  0  0  0  0  0  0  0  0  0  0
   -4.8577    6.2320   -1.4697 H   0  0  0  0  0  0  0  0  0  0  0  0
   -3.5683    4.7619    0.0180 H   0  0  0  0  0  0  0  0  0  0  0  0
   -4.1232   -1.9655   -0.2940 H   0  0  0  0  0  0  0  0  0  0  0  0
   -5.6392   -3.0394   -1.8706 H   0  0  0  0  0  0  0  0  0  0  0  0
   -7.0311   -1.6621   -3.3923 H   0  0  0  0  0  0  0  0  0  0  0  0
   -6.8870    0.7565   -3.3342 H   0  0  0  0  0  0  0  0  0  0  0  0
   -4.3915   -0.1119    2.4982 H   0  0  0  0  0  0  0  0  0  0  0  0
   -4.1566   -1.1059    4.6715 H   0  0  0  0  0  0  0  0  0  0  0  0
   -2.8056   -2.2378    6.3833 H   0  0  0  0  0  0  0  0  0  0  0  0
   -0.4450   -2.8326    5.9017 H   0  0  0  0  0  0  0  0  0  0  0  0
    0.5358   -2.3354    3.7337 H   0  0  0  0  0  0  0  0  0  0  0  0
    6.2589    1.9061   -3.6080 H   0  0  0  0  0  0  0  0  0  0  0  0
    5.2284    0.5156   -5.3059 H   0  0  0  0  0  0  0  0  0  0  0  0
    3.5218   -1.1706   -4.6779 H   0  0  0  0  0  0  0  0  0  0  0  0
    2.8743   -1.4456   -2.3509 H   0  0  0  0  0  0  0  0  0  0  0  0
    5.6141    2.3598    2.5237 H   0  0  0  0  0  0  0  0  0  0  0  0
    7.2947    4.0792    2.0207 H   0  0  0  0  0  0  0  0  0  0  0  0
    8.0338    4.4375   -0.3213 H   0  0  0  0  0  0  0  0  0  0  0  0
    7.1084    3.0988   -2.1223 H   0  0  0  0  0  0  0  0  0  0  0  0
    4.1215    0.6143    1.8244 H   0  0  0  0  0  0  0  0  0  0  0  0
   -0.4386    2.9144   -1.1671 H   0  0  0  0  0  0  0  0  0  0  0  0
  1  2  2  0
  2  3  1  0
  3  4  1  0
  4  5  2  0
  5  6  1  0
  6  7  2  0
  7  8  1  0
  8  9  1  0
  9 10  2  0
 10 11  1  0
 11 12  2  0
  8 13  2  0
 13 14  1  0
 14 15  2  0
 15 16  1  0
 16 17  1  0
 17 18  2  0
 18 19  1  0
 19 20  2  0
 20 21  1  0
 21 22  2  0
 22 23  1  0
 23 24  2  0
 20 25  1  0
 25 26  2  0
 26 27  1  0
 27 28  2  0
 28 29  1  0
 29 30  2  0
 16 31  2  0
 31 32  1  0
 32 33  2  0
 33 34  1  0
 34 35  2  0
 35 36  1  0
 36 37  2  0
 15 38  1  0
  5 39  1  0
 39 40  1  0
 40 41  1  0
 41 42  2  0
 42 43  1  0
 43 44  2  0
 44 45  1  0
 41 46  1  0
 46 47  2  0
 47 48  1  0
 48 49  2  0
 49 50  1  0
 50 51  2  0
 47 52  1  0
  2 53  1  0
 38  2  1  0
 13  4  1  0
 12  7  1  0
 37 14  1  0
 26 17  1  0
 24 19  1  0
 30 25  1  0
 37 32  1  0
 52 39  2  0
 45 40  2  0
 51 46  1  0
  6 54  1  0
  9 55  1  0
 10 56  1  0
 11 57  1  0
 12 58  1  0
 18 59  1  0
 21 60  1  0
 22 61  1  0
 23 62  1  0
 24 63  1  0
 27 64  1  0
 28 65  1  0
 29 66  1  0
 30 67  1  0
 31 68  1  0
 33 69  1  0
 34 70  1  0
 35 71  1  0
 36 72  1  0
 42 73  1  0
 43 74  1  0
 44 75  1  0
 45 76  1  0
 48 77  1  0
 49 78  1  0
 50 79  1  0
 51 80  1  0
 52 81  1  0
 53 82  1  0
M  END
