
     RDKit          3D

118130  0  0  0  0  0  0  0  0999 V2000
   -0.0725    1.6227    2.0002 O   0  0  0  0  0  0  0  0  0  0  0  0
    0.0915    1.1348    0.5943 P   0  0  0  0  0  5  0  0  0  0  0  0
    1.3110    0.1169    0.3700 O   0  0  0  0  0  0  0  0  0  0  0  0
    1.4240   -0.6254   -0.7813 C   0  0  0  0  0  0  0  0  0  0  0  0
    2.6550   -0.5488   -1.4656 C   0  0  0  0  0  0  0  0  0  0  0  0
    2.7857   -1.2609   -2.6620 C   0  0  0  0  0  0  0  0  0  0  0  0
    1.7353   -2.0226   -3.1778 C   0  0  0  0  0  0  0  0  0  0  0  0
    0.5327   -2.1577   -2.4402 C   0  0  0  0  0  0  0  0  0  0  0  0
   -0.5013   -2.9120   -3.0518 C   0  0  0  0  0  0  0  0  0  0  0  0
   -0.3421   -3.5337   -4.2931 C   0  0  0  0  0  0  0  0  0  0  0  0
    0.8566   -3.4109   -4.9765 C   0  0  0  0  0  0  0  0  0  0  0  0
    1.8876   -2.6570   -4.4226 C   0  0  0  0  0  0  0  0  0  0  0  0
    0.3928   -1.5165   -1.1604 C   0  0  0  0  0  0  0  0  0  0  0  0
   -0.7051   -1.8074   -0.2702 C   0  0  0  0  0  0  0  0  0  0  0  0
   -1.5592   -0.7754    0.1706 C   0  0  0  0  0  0  0  0  0  0  0  0
   -2.8011   -1.0128    0.7907 C   0  0  0  0  0  0  0  0  0  0  0  0
   -3.7935    0.0711    1.0099 C   0  0  0  0  0  0  0  0  0  0  0  0
   -4.4512    0.6619   -0.1098 C   0  0  0  0  0  0  0  0  0  0  0  0
   -4.2514    0.1751   -1.4902 C   0  0  0  0  0  0  0  0  0  0  0  0
   -4.8360   -1.0296   -1.9142 C   0  0  0  0  0  0  0  0  0  0  0  0
   -4.6280   -1.5107   -3.2089 C   0  0  0  0  0  0  0  0  0  0  0  0
   -3.8351   -0.7907   -4.0997 C   0  0  0  0  0  0  0  0  0  0  0  0
   -3.2558    0.4114   -3.6997 C   0  0  0  0  0  0  0  0  0  0  0  0
   -3.4680    0.8950   -2.4066 C   0  0  0  0  0  0  0  0  0  0  0  0
   -5.3624    1.7170    0.0943 C   0  0  0  0  0  0  0  0  0  0  0  0
   -5.6695    2.1950    1.3731 C   0  0  0  0  0  0  0  0  0  0  0  0
   -6.6399    3.2837    1.5641 C   0  0  0  0  0  0  0  0  0  0  0  0
   -6.4904    4.5137    0.9026 C   0  0  0  0  0  0  0  0  0  0  0  0
   -7.4173    5.5448    1.0806 C   0  0  0  0  0  0  0  0  0  0  0  0
   -8.5092    5.3630    1.9253 C   0  0  0  0  0  0  0  0  0  0  0  0
   -8.6766    4.1518    2.5902 C   0  0  0  0  0  0  0  0  0  0  0  0
   -7.7492    3.1215    2.4106 C   0  0  0  0  0  0  0  0  0  0  0  0
   -5.0435    1.5830    2.4665 C   0  0  0  0  0  0  0  0  0  0  0  0
   -4.1229    0.5253    2.3146 C   0  0  0  0  0  0  0  0  0  0  0  0
   -3.5690   -0.0799    3.5380 C   0  0  0  0  0  0  0  0  0  0  0  0
   -4.2568   -1.1122    4.1968 C   0  0  0  0  0  0  0  0  0  0  0  0
   -3.7379   -1.6946    5.3553 C   0  0  0  0  0  0  0  0  0  0  0  0
   -2.5285   -1.2443    5.8781 C   0  0  0  0  0  0  0  0  0  0  0  0
   -1.8434   -0.2074    5.2491 C   0  0  0  0  0  0  0  0  0  0  0  0
   -2.3658    0.3739    4.0913 C   0  0  0  0  0  0  0  0  0  0  0  0
   -3.1254   -2.3330    1.1132 C   0  0  0  0  0  0  0  0  0  0  0  0
   -2.2474   -3.3871    0.8496 C   0  0  0  0  0  0  0  0  0  0  0  0
   -2.5811   -4.6871    1.2662 C   0  0  0  0  0  0  0  0  0  0  0  0
   -1.7217   -5.7584    1.0366 C   0  0  0  0  0  0  0  0  0  0  0  0
   -0.5143   -5.5406    0.3934 C   0  0  0  0  0  0  0  0  0  0  0  0
   -0.1762   -4.2526   -0.0299 C   0  0  0  0  0  0  0  0  0  0  0  0
   -1.0335   -3.1396    0.1608 C   0  0  0  0  0  0  0  0  0  0  0  0
   -1.2240    0.5286   -0.0998 O   0  0  0  0  0  0  0  0  0  0  0  0
    3.8319    0.1640   -0.9006 C   0  0  0  0  0  0  0  0  0  0  0  0
    4.3508    1.3405   -1.5050 C   0  0  0  0  0  0  0  0  0  0  0  0
    3.8072    1.9109   -2.7492 C   0  0  0  0  0  0  0  0  0  0  0  0
    2.7255    2.7996   -2.7229 C   0  0  0  0  0  0  0  0  0  0  0  0
    2.2081    3.3371   -3.9025 C   0  0  0  0  0  0  0  0  0  0  0  0
    2.7780    3.0022   -5.1287 C   0  0  0  0  0  0  0  0  0  0  0  0
    3.8677    2.1357   -5.1736 C   0  0  0  0  0  0  0  0  0  0  0  0
    4.3827    1.5991   -3.9913 C   0  0  0  0  0  0  0  0  0  0  0  0
    5.4466    1.9991   -0.9087 C   0  0  0  0  0  0  0  0  0  0  0  0
    6.0588    1.5275    0.2594 C   0  0  0  0  0  0  0  0  0  0  0  0
    7.1960    2.2393    0.8650 C   0  0  0  0  0  0  0  0  0  0  0  0
    8.3451    2.5401    0.1151 C   0  0  0  0  0  0  0  0  0  0  0  0
    9.4241    3.2155    0.6910 C   0  0  0  0  0  0  0  0  0  0  0  0
    9.3713    3.6022    2.0272 C   0  0  0  0  0  0  0  0  0  0  0  0
    8.2415    3.3142    2.7888 C   0  0  0  0  0  0  0  0  0  0  0  0
    7.1636    2.6381    2.2116 C   0  0  0  0  0  0  0  0  0  0  0  0
    5.5625    0.3475    0.8249 C   0  0  0  0  0  0  0  0  0  0  0  0
    4.4748   -0.3508    0.2644 C   0  0  0  0  0  0  0  0  0  0  0  0
    4.0671   -1.6212    0.8979 C   0  0  0  0  0  0  0  0  0  0  0  0
    3.3619   -1.6282    2.1114 C   0  0  0  0  0  0  0  0  0  0  0  0
    2.9443   -2.8290    2.6896 C   0  0  0  0  0  0  0  0  0  0  0  0
    3.2408   -4.0420    2.0716 C   0  0  0  0  0  0  0  0  0  0  0  0
    3.9562   -4.0556    0.8752 C   0  0  0  0  0  0  0  0  0  0  0  0
    4.3678   -2.8538    0.2944 C   0  0  0  0  0  0  0  0  0  0  0  0
    0.4285    2.3929   -0.3507 O   0  0  0  0  0  0  0  0  0  0  0  0
    3.7291   -1.2149   -3.2021 H   0  0  0  0  0  0  0  0  0  0  0  0
   -1.4727   -3.0088   -2.5686 H   0  0  0  0  0  0  0  0  0  0  0  0
   -1.1625   -4.1034   -4.7210 H   0  0  0  0  0  0  0  0  0  0  0  0
    0.9875   -3.8876   -5.9439 H   0  0  0  0  0  0  0  0  0  0  0  0
    2.8146   -2.5555   -4.9810 H   0  0  0  0  0  0  0  0  0  0  0  0
   -5.4518   -1.6066   -1.2270 H   0  0  0  0  0  0  0  0  0  0  0  0
   -5.0816   -2.4486   -3.5179 H   0  0  0  0  0  0  0  0  0  0  0  0
   -3.6649   -1.1673   -5.1041 H   0  0  0  0  0  0  0  0  0  0  0  0
   -2.6282    0.9691   -4.3894 H   0  0  0  0  0  0  0  0  0  0  0  0
   -2.9958    1.8264   -2.1040 H   0  0  0  0  0  0  0  0  0  0  0  0
   -5.8649    2.1511   -0.7697 H   0  0  0  0  0  0  0  0  0  0  0  0
   -5.6401    4.6795    0.2460 H   0  0  0  0  0  0  0  0  0  0  0  0
   -7.2825    6.4896    0.5619 H   0  0  0  0  0  0  0  0  0  0  0  0
   -9.2299    6.1644    2.0640 H   0  0  0  0  0  0  0  0  0  0  0  0
   -9.5300    4.0045    3.2472 H   0  0  0  0  0  0  0  0  0  0  0  0
   -7.9072    2.1792    2.9306 H   0  0  0  0  0  0  0  0  0  0  0  0
   -5.2727    1.9348    3.4730 H   0  0  0  0  0  0  0  0  0  0  0  0
   -5.2046   -1.4714    3.8016 H   0  0  0  0  0  0  0  0  0  0  0  0
   -4.2780   -2.4982    5.8483 H   0  0  0  0  0  0  0  0  0  0  0  0
   -2.1196   -1.6971    6.7774 H   0  0  0  0  0  0  0  0  0  0  0  0
   -0.9022    0.1545    5.6546 H   0  0  0  0  0  0  0  0  0  0  0  0
   -1.8267    1.1944    3.6242 H   0  0  0  0  0  0  0  0  0  0  0  0
   -4.0831   -2.5381    1.5863 H   0  0  0  0  0  0  0  0  0  0  0  0
   -3.5154   -4.8741    1.7902 H   0  0  0  0  0  0  0  0  0  0  0  0
   -1.9903   -6.7564    1.3723 H   0  0  0  0  0  0  0  0  0  0  0  0
    0.1747   -6.3636    0.2229 H   0  0  0  0  0  0  0  0  0  0  0  0
    0.7950   -4.1237   -0.5046 H   0  0  0  0  0  0  0  0  0  0  0  0
    2.2787    3.0765   -1.7722 H   0  0  0  0  0  0  0  0  0  0  0  0
    1.3600    4.0152   -3.8604 H   0  0  0  0  0  0  0  0  0  0  0  0
    2.3738    3.4187   -6.0476 H   0  0  0  0  0  0  0  0  0  0  0  0
    4.3166    1.8763   -6.1289 H   0  0  0  0  0  0  0  0  0  0  0  0
    5.2346    0.9240   -4.0418 H   0  0  0  0  0  0  0  0  0  0  0  0
    5.8194    2.9146   -1.3693 H   0  0  0  0  0  0  0  0  0  0  0  0
    8.4103    2.2385   -0.9280 H   0  0  0  0  0  0  0  0  0  0  0  0
   10.3049    3.4385    0.0944 H   0  0  0  0  0  0  0  0  0  0  0  0
   10.2101    4.1283    2.4763 H   0  0  0  0  0  0  0  0  0  0  0  0
    8.1948    3.6171    3.8308 H   0  0  0  0  0  0  0  0  0  0  0  0
    6.2860    2.4314    2.8208 H   0  0  0  0  0  0  0  0  0  0  0  0
    6.0458   -0.0605    1.7129 H   0  0  0  0  0  0  0  0  0  0  0  0
    3.1058   -0.6888    2.5973 H   0  0  0  0  0  0  0  0  0  0  0  0
    2.3768   -2.8150    3.6176 H   0  0  0  0  0  0  0  0  0  0  0  0
    2.9091   -4.9748    2.5188 H   0  0  0  0  0  0  0  0  0  0  0  0
    4.1875   -4.9996    0.3908 H   0  0  0  0  0  0  0  0  0  0  0  0
    4.9169   -2.8800   -0.6441 H   0  0  0  0  0  0  0  0  0  0  0  0
    0.1045    3.2015    0.0835 H   0  0  0  0  0  0  0  0  0  0  0  0
  1  2  2  0
  2  3  1  0
  3  4  1  0
  4  5  2  0
  5  6  1  0
  6  7  2  0
  7  8  1  0
  8  9  1  0
  9 10  2  0
 10 11  1  0
 11 12  2  0
  8 13  2  0
 13 14  1  0
 14 15  2  0
 15 16  1  0
 16 17  1  0
 17 18  1  0
 18 19  1  0
 19 20  2  0
 20 21  1  0
 21 22  2  0
 22 23  1  0
 23 24  2  0
 18 25  2  0
 25 26  1  0
 26 27  1  0
 27 28  2  0
 28 29  1  0
 29 30  2  0
 30 31  1  0
 31 32  2  0
 26 33  2  0
 33 34  1  0
 34 35  1  0
 35 36  2  0
 36 37  1  0
 37 38  2  0
 38 39  1  0
 39 40  2  0
 16 41  2  0
 41 42  1  0
 42 43  2  0
 43 44  1  0
 44 45  2  0
 45 46  1  0
 46 47  2  0
 15 48  1  0
  5 49  1  0
 49 50  1  0
 50 51  1  0
 51 52  2  0
 52 53  1  0
 53 54  2  0
 54 55  1  0
 55 56  2  0
 50 57  2  0
 57 58  1  0
 58 59  1  0
 59 60  2  0
 60 61  1  0
 61 62  2  0
 62 63  1  0
 63 64  2  0
 58 65  2  0
 65 66  1  0
 66 67  1  0
 67 68  2  0
 68 69  1  0
 69 70  2  0
 70 71  1  0
 71 72  2  0
  2 73  1  0
 48  2  1  0
 13  4  1  0
 12  7  1  0
 47 14  1  0
 34 17  2  0
 24 19  1  0
 32 27  1  0
 40 35  1  0
 47 42  1  0
 66 49  2  0
 56 51  1  0
 64 59  1  0
 72 67  1  0
  6 74  1  0
  9 75  1  0
 10 76  1  0
 11 77  1  0
 12 78  1  0
 20 79  1  0
 21 80  1  0
 22 81  1  0
 23 82  1  0
 24 83  1  0
 25 84  1  0
 28 85  1  0
 29 86  1  0
 30 87  1  0
 31 88  1  0
 32 89  1  0
 33 90  1  0
 36 91  1  0
 37 92  1  0
 38 93  1  0
 39 94  1  0
 40 95  1  0
 41 96  1  0
 43 97  1  0
 44 98  1  0
 45 99  1  0
 46100  1  0
 52101  1  0
 53102  1  0
 54103  1  0
 55104  1  0
 56105  1  0
 57106  1  0
 60107  1  0
 61108  1  0
 62109  1  0
 63110  1  0
 64111  1  0
 65112  1  0
 68113  1  0
 69114  1  0
 70115  1  0
 71116  1  0
 72117  1  0
 73118  1  0
M  END
