
     RDKit          3D

 70 78  0  0  0  0  0  0  0  0999 V2000
   -0.4497    2.9234   -1.4324 O   0  0  0  0  0  0  0  0  0  0  0  0
    0.1196    1.8599   -0.5465 P   0  0  0  0  0  5  0  0  0  0  0  0
   -0.9365    0.9079    0.2098 O   0  0  0  0  0  0  0  0  0  0  0  0
   -1.4931   -0.1198   -0.5166 C   0  0  0  0  0  0  0  0  0  0  0  0
   -2.8606   -0.0164   -0.8194 C   0  0  0  0  0  0  0  0  0  0  0  0
   -3.4520   -1.0491   -1.5476 C   0  0  0  0  0  0  0  0  0  0  0  0
   -2.7082   -2.1482   -1.9850 C   0  0  0  0  0  0  0  0  0  0  0  0
   -1.3280   -2.2512   -1.6623 C   0  0  0  0  0  0  0  0  0  0  0  0
   -0.6350   -3.3540   -2.2241 C   0  0  0  0  0  0  0  0  0  0  0  0
   -1.2720   -4.3279   -2.9979 C   0  0  0  0  0  0  0  0  0  0  0  0
   -2.6289   -4.2242   -3.2566 C   0  0  0  0  0  0  0  0  0  0  0  0
   -3.3400   -3.1367   -2.7583 C   0  0  0  0  0  0  0  0  0  0  0  0
   -0.6938   -1.2399   -0.8509 C   0  0  0  0  0  0  0  0  0  0  0  0
    0.6707   -1.3257   -0.3677 C   0  0  0  0  0  0  0  0  0  0  0  0
    1.5830   -0.2692   -0.6129 C   0  0  0  0  0  0  0  0  0  0  0  0
    2.9529   -0.3296   -0.2983 C   0  0  0  0  0  0  0  0  0  0  0  0
    3.8831    0.7668   -0.6347 C   0  0  0  0  0  0  0  0  0  0  0  0
    4.3370    0.8664   -1.9633 C   0  0  0  0  0  0  0  0  0  0  0  0
    5.2114    1.8763   -2.3497 C   0  0  0  0  0  0  0  0  0  0  0  0
    5.6489    2.8071   -1.4129 C   0  0  0  0  0  0  0  0  0  0  0  0
    5.2189    2.7442   -0.0799 C   0  0  0  0  0  0  0  0  0  0  0  0
    4.3283    1.7184    0.3293 C   0  0  0  0  0  0  0  0  0  0  0  0
    3.9216    1.7101    1.6848 C   0  0  0  0  0  0  0  0  0  0  0  0
    4.3716    2.6695    2.5943 C   0  0  0  0  0  0  0  0  0  0  0  0
    5.2449    3.6635    2.1759 C   0  0  0  0  0  0  0  0  0  0  0  0
    5.6661    3.6996    0.8480 C   0  0  0  0  0  0  0  0  0  0  0  0
    3.4321   -1.4774    0.3337 C   0  0  0  0  0  0  0  0  0  0  0  0
    2.5757   -2.5235    0.6856 C   0  0  0  0  0  0  0  0  0  0  0  0
    3.0978   -3.6302    1.3764 C   0  0  0  0  0  0  0  0  0  0  0  0
    2.2744   -4.6713    1.7948 C   0  0  0  0  0  0  0  0  0  0  0  0
    0.9144   -4.6100    1.5386 C   0  0  0  0  0  0  0  0  0  0  0  0
    0.3863   -3.5178    0.8447 C   0  0  0  0  0  0  0  0  0  0  0  0
    1.1931   -2.4552    0.3630 C   0  0  0  0  0  0  0  0  0  0  0  0
    1.1578    0.8633   -1.2714 O   0  0  0  0  0  0  0  0  0  0  0  0
   -3.6768    1.1324   -0.3845 C   0  0  0  0  0  0  0  0  0  0  0  0
   -4.3652    1.1470    0.8641 C   0  0  0  0  0  0  0  0  0  0  0  0
   -5.1359    2.2867    1.2091 C   0  0  0  0  0  0  0  0  0  0  0  0
   -5.8235    2.3257    2.4341 C   0  0  0  0  0  0  0  0  0  0  0  0
   -5.7623    1.2574    3.3274 C   0  0  0  0  0  0  0  0  0  0  0  0
   -5.0115    0.1347    3.0076 C   0  0  0  0  0  0  0  0  0  0  0  0
   -4.3229    0.0803    1.7935 C   0  0  0  0  0  0  0  0  0  0  0  0
   -5.2079    3.3751    0.3273 C   0  0  0  0  0  0  0  0  0  0  0  0
   -4.5300    3.3564   -0.8879 C   0  0  0  0  0  0  0  0  0  0  0  0
   -3.7732    2.2441   -1.2406 C   0  0  0  0  0  0  0  0  0  0  0  0
    0.9766    2.4823    0.6624 O   0  0  0  0  0  0  0  0  0  0  0  0
   -4.5119   -0.9771   -1.7901 H   0  0  0  0  0  0  0  0  0  0  0  0
    0.4373   -3.4665   -2.0745 H   0  0  0  0  0  0  0  0  0  0  0  0
   -0.7003   -5.1605   -3.3996 H   0  0  0  0  0  0  0  0  0  0  0  0
   -3.1313   -4.9763   -3.8588 H   0  0  0  0  0  0  0  0  0  0  0  0
   -4.4002   -3.0592   -2.9929 H   0  0  0  0  0  0  0  0  0  0  0  0
    4.0001    0.1467   -2.7075 H   0  0  0  0  0  0  0  0  0  0  0  0
    5.5505    1.9386   -3.3804 H   0  0  0  0  0  0  0  0  0  0  0  0
    6.3323    3.5904   -1.7350 H   0  0  0  0  0  0  0  0  0  0  0  0
    3.2270    0.9552    2.0496 H   0  0  0  0  0  0  0  0  0  0  0  0
    4.0336    2.6368    3.6270 H   0  0  0  0  0  0  0  0  0  0  0  0
    5.5982    4.4114    2.8806 H   0  0  0  0  0  0  0  0  0  0  0  0
    6.3506    4.4875    0.5397 H   0  0  0  0  0  0  0  0  0  0  0  0
    4.4924   -1.5371    0.5777 H   0  0  0  0  0  0  0  0  0  0  0  0
    4.1597   -3.6838    1.6094 H   0  0  0  0  0  0  0  0  0  0  0  0
    2.6931   -5.5162    2.3347 H   0  0  0  0  0  0  0  0  0  0  0  0
    0.2561   -5.4043    1.8806 H   0  0  0  0  0  0  0  0  0  0  0  0
   -0.6919   -3.5034    0.6952 H   0  0  0  0  0  0  0  0  0  0  0  0
   -6.4146    3.1982    2.7041 H   0  0  0  0  0  0  0  0  0  0  0  0
   -6.2978    1.3055    4.2718 H   0  0  0  0  0  0  0  0  0  0  0  0
   -4.9551   -0.7005    3.7005 H   0  0  0  0  0  0  0  0  0  0  0  0
   -3.7400   -0.8132    1.5807 H   0  0  0  0  0  0  0  0  0  0  0  0
   -5.7920    4.2557    0.5856 H   0  0  0  0  0  0  0  0  0  0  0  0
   -4.5841    4.2104   -1.5578 H   0  0  0  0  0  0  0  0  0  0  0  0
   -3.2385    2.2512   -2.1895 H   0  0  0  0  0  0  0  0  0  0  0  0
    1.5674    3.1898    0.3457 H   0  0  0  0  0  0  0  0  0  0  0  0
  1  2  2  0
  2  3  1  0
  3  4  1  0
  4  5  2  0
  5  6  1  0
  6  7  2  0
  7  8  1  0
  8  9  1  0
  9 10  2  0
 10 11  1  0
 11 12  2  0
  8 13  2  0
 13 14  1  0
 14 15  2  0
 15 16  1  0
 16 17  1  0
 17 18  2  0
 18 19  1  0
 19 20  2  0
 20 21  1  0
 21 22  2  0
 22 23  1  0
 23 24  2  0
 24 25  1  0
 25 26  2  0
 16 27  2  0
 27 28  1  0
 28 29  2  0
 29 30  1  0
 30 31  2  0
 31 32  1  0
 32 33  2  0
 15 34  1  0
  5 35  1  0
 35 36  1  0
 36 37  1  0
 37 38  2  0
 38 39  1  0
 39 40  2  0
 40 41  1  0
 37 42  1  0
 42 43  2  0
 43 44  1  0
  2 45  1  0
 34  2  1  0
 13  4  1  0
 12  7  1  0
 33 14  1  0
 22 17  1  0
 26 21  1  0
 33 28  1  0
 44 35  2  0
 41 36  2  0
  6 46  1  0
  9 47  1  0
 10 48  1  0
 11 49  1  0
 12 50  1  0
 18 51  1  0
 19 52  1  0
 20 53  1  0
 23 54  1  0
 24 55  1  0
 25 56  1  0
 26 57  1  0
 27 58  1  0
 29 59  1  0
 30 60  1  0
 31 61  1  0
 32 62  1  0
 38 63  1  0
 39 64  1  0
 40 65  1  0
 41 66  1  0
 42 67  1  0
 43 68  1  0
 44 69  1  0
 45 70  1  0
M  END
