
     RDKit          3D

 82 92  0  0  0  0  0  0  0  0999 V2000
    0.4628    2.1895   -1.2575 O   0  0  0  0  0  0  0  0  0  0  0  0
   -0.0400    1.2734   -0.1861 P   0  0  0  0  0  5  0  0  0  0  0  0
    1.0793    0.3570    0.5278 O   0  0  0  0  0  0  0  0  0  0  0  0
    1.5580   -0.7080   -0.2000 C   0  0  0  0  0  0  0  0  0  0  0  0
    2.8861   -0.6263   -0.6497 C   0  0  0  0  0  0  0  0  0  0  0  0
    3.3898   -1.6867   -1.4034 C   0  0  0  0  0  0  0  0  0  0  0  0
    2.5967   -2.7932   -1.7200 C   0  0  0  0  0  0  0  0  0  0  0  0
    1.2603   -2.8750   -1.2423 C   0  0  0  0  0  0  0  0  0  0  0  0
    0.5046   -3.9915   -1.6830 C   0  0  0  0  0  0  0  0  0  0  0  0
    1.0477   -4.9964   -2.4884 C   0  0  0  0  0  0  0  0  0  0  0  0
    2.3677   -4.9110   -2.9008 C   0  0  0  0  0  0  0  0  0  0  0  0
    3.1342   -3.8120   -2.5245 C   0  0  0  0  0  0  0  0  0  0  0  0
    0.7248   -1.8335   -0.3997 C   0  0  0  0  0  0  0  0  0  0  0  0
   -0.5661   -1.8991    0.2576 C   0  0  0  0  0  0  0  0  0  0  0  0
   -1.5098   -0.8495    0.1080 C   0  0  0  0  0  0  0  0  0  0  0  0
   -2.8220   -0.9030    0.6163 C   0  0  0  0  0  0  0  0  0  0  0  0
   -3.7939    0.1939    0.4184 C   0  0  0  0  0  0  0  0  0  0  0  0
   -4.0391    1.0461    1.5071 C   0  0  0  0  0  0  0  0  0  0  0  0
   -4.9209    2.1238    1.4199 C   0  0  0  0  0  0  0  0  0  0  0  0
   -5.6039    2.3771    0.2083 C   0  0  0  0  0  0  0  0  0  0  0  0
   -6.4759    3.4978    0.2019 C   0  0  0  0  0  0  0  0  0  0  0  0
   -6.6618    4.3128    1.3232 C   0  0  0  0  0  0  0  0  0  0  0  0
   -5.9805    4.0361    2.4967 C   0  0  0  0  0  0  0  0  0  0  0  0
   -5.1153    2.9475    2.5435 C   0  0  0  0  0  0  0  0  0  0  0  0
   -5.3847    1.5063   -0.9184 C   0  0  0  0  0  0  0  0  0  0  0  0
   -4.4801    0.4115   -0.8051 C   0  0  0  0  0  0  0  0  0  0  0  0
   -4.2978   -0.4382   -1.9252 C   0  0  0  0  0  0  0  0  0  0  0  0
   -4.9608   -0.2324   -3.1324 C   0  0  0  0  0  0  0  0  0  0  0  0
   -5.8330    0.8320   -3.2532 C   0  0  0  0  0  0  0  0  0  0  0  0
   -6.0393    1.6824   -2.1655 C   0  0  0  0  0  0  0  0  0  0  0  0
   -3.1988   -2.0295    1.3487 C   0  0  0  0  0  0  0  0  0  0  0  0
   -2.2977   -3.0644    1.6062 C   0  0  0  0  0  0  0  0  0  0  0  0
   -2.7150   -4.1487    2.3966 C   0  0  0  0  0  0  0  0  0  0  0  0
   -1.8367   -5.1752    2.7305 C   0  0  0  0  0  0  0  0  0  0  0  0
   -0.5254   -5.1204    2.2881 C   0  0  0  0  0  0  0  0  0  0  0  0
   -0.1041   -4.0514    1.4922 C   0  0  0  0  0  0  0  0  0  0  0  0
   -0.9746   -3.0048    1.0909 C   0  0  0  0  0  0  0  0  0  0  0  0
   -1.1984    0.2570   -0.6508 O   0  0  0  0  0  0  0  0  0  0  0  0
    3.7485    0.5307   -0.3371 C   0  0  0  0  0  0  0  0  0  0  0  0
    4.5604    0.5871    0.8263 C   0  0  0  0  0  0  0  0  0  0  0  0
    5.3620    1.7396    1.0685 C   0  0  0  0  0  0  0  0  0  0  0  0
    6.1509    1.7459    2.2487 C   0  0  0  0  0  0  0  0  0  0  0  0
    6.1621    0.6831    3.1549 C   0  0  0  0  0  0  0  0  0  0  0  0
    5.3812   -0.4309    2.9125 C   0  0  0  0  0  0  0  0  0  0  0  0
    4.5935   -0.4760    1.7642 C   0  0  0  0  0  0  0  0  0  0  0  0
    5.3429    2.8365    0.1340 C   0  0  0  0  0  0  0  0  0  0  0  0
    4.5205    2.7505   -1.0138 C   0  0  0  0  0  0  0  0  0  0  0  0
    4.4654    3.8046   -1.9423 C   0  0  0  0  0  0  0  0  0  0  0  0
    5.2214    4.9591   -1.7663 C   0  0  0  0  0  0  0  0  0  0  0  0
    6.0411    5.0723   -0.6549 C   0  0  0  0  0  0  0  0  0  0  0  0
    6.0989    4.0304    0.2773 C   0  0  0  0  0  0  0  0  0  0  0  0
    3.7465    1.6104   -1.2320 C   0  0  0  0  0  0  0  0  0  0  0  0
   -0.6863    2.0388    1.0727 O   0  0  0  0  0  0  0  0  0  0  0  0
    4.4170   -1.6314   -1.7634 H   0  0  0  0  0  0  0  0  0  0  0  0
   -0.5444   -4.0910   -1.4101 H   0  0  0  0  0  0  0  0  0  0  0  0
    0.4317   -5.8382   -2.7947 H   0  0  0  0  0  0  0  0  0  0  0  0
    2.7968   -5.6866   -3.5292 H   0  0  0  0  0  0  0  0  0  0  0  0
    4.1615   -3.7502   -2.8795 H   0  0  0  0  0  0  0  0  0  0  0  0
   -3.5194    0.8625    2.4468 H   0  0  0  0  0  0  0  0  0  0  0  0
   -7.0340    3.7655   -0.6903 H   0  0  0  0  0  0  0  0  0  0  0  0
   -7.3371    5.1626    1.2707 H   0  0  0  0  0  0  0  0  0  0  0  0
   -6.1181    4.6646    3.3722 H   0  0  0  0  0  0  0  0  0  0  0  0
   -4.5864    2.7474    3.4732 H   0  0  0  0  0  0  0  0  0  0  0  0
   -3.6195   -1.2872   -1.8717 H   0  0  0  0  0  0  0  0  0  0  0  0
   -4.7888   -0.9008   -3.9710 H   0  0  0  0  0  0  0  0  0  0  0  0
   -6.3553    1.0090   -4.1893 H   0  0  0  0  0  0  0  0  0  0  0  0
   -6.7370    2.5005   -2.3189 H   0  0  0  0  0  0  0  0  0  0  0  0
   -4.2142   -2.0845    1.7412 H   0  0  0  0  0  0  0  0  0  0  0  0
   -3.7350   -4.1978    2.7742 H   0  0  0  0  0  0  0  0  0  0  0  0
   -2.1732   -6.0034    3.3487 H   0  0  0  0  0  0  0  0  0  0  0  0
    0.1775   -5.9040    2.5598 H   0  0  0  0  0  0  0  0  0  0  0  0
    0.9434   -4.0450    1.1954 H   0  0  0  0  0  0  0  0  0  0  0  0
    6.7811    2.5967    2.4918 H   0  0  0  0  0  0  0  0  0  0  0  0
    6.7815    0.7352    4.0467 H   0  0  0  0  0  0  0  0  0  0  0  0
    5.3793   -1.2646    3.6097 H   0  0  0  0  0  0  0  0  0  0  0  0
    3.9909   -1.3688    1.6097 H   0  0  0  0  0  0  0  0  0  0  0  0
    3.8176    3.7335   -2.8152 H   0  0  0  0  0  0  0  0  0  0  0  0
    5.1632    5.7650   -2.4931 H   0  0  0  0  0  0  0  0  0  0  0  0
    6.6339    5.9702   -0.5037 H   0  0  0  0  0  0  0  0  0  0  0  0
    6.7544    4.1770    1.1309 H   0  0  0  0  0  0  0  0  0  0  0  0
    3.1058    1.5604   -2.1136 H   0  0  0  0  0  0  0  0  0  0  0  0
   -0.9186    1.4279    1.7919 H   0  0  0  0  0  0  0  0  0  0  0  0
  1  2  2  0
  2  3  1  0
  3  4  1  0
  4  5  2  0
  5  6  1  0
  6  7  2  0
  7  8  1  0
  8  9  1  0
  9 10  2  0
 10 11  1  0
 11 12  2  0
  8 13  2  0
 13 14  1  0
 14 15  2  0
 15 16  1  0
 16 17  1  0
 17 18  2  0
 18 19  1  0
 19 20  2  0
 20 21  1  0
 21 22  2  0
 22 23  1  0
 23 24  2  0
 20 25  1  0
 25 26  2  0
 26 27  1  0
 27 28  2  0
 28 29  1  0
 29 30  2  0
 16 31  2  0
 31 32  1  0
 32 33  2  0
 33 34  1  0
 34 35  2  0
 35 36  1  0
 36 37  2  0
 15 38  1  0
  5 39  1  0
 39 40  1  0
 40 41  1  0
 41 42  2  0
 42 43  1  0
 43 44  2  0
 44 45  1  0
 41 46  1  0
 46 47  2  0
 47 48  1  0
 48 49  2  0
 49 50  1  0
 50 51  2  0
 47 52  1  0
  2 53  1  0
 38  2  1  0
 13  4  1  0
 12  7  1  0
 37 14  1  0
 26 17  1  0
 24 19  1  0
 30 25  1  0
 37 32  1  0
 52 39  2  0
 45 40  2  0
 51 46  1  0
  6 54  1  0
  9 55  1  0
 10 56  1  0
 11 57  1  0
 12 58  1  0
 18 59  1  0
 21 60  1  0
 22 61  1  0
 23 62  1  0
 24 63  1  0
 27 64  1  0
 28 65  1  0
 29 66  1  0
 30 67  1  0
 31 68  1  0
 33 69  1  0
 34 70  1  0
 35 71  1  0
 36 72  1  0
 42 73  1  0
 43 74  1  0
 44 75  1  0
 45 76  1  0
 48 77  1  0
 49 78  1  0
 50 79  1  0
 51 80  1  0
 52 81  1  0
 53 82  1  0
M  END
