
     RDKit          3D

 17 17  0  0  0  0  0  0  0  0999 V2000
   -3.7360    0.8593   -0.2023 S   0  0  0  0  0  0  0  0  0  0  0  0
   -2.0324    0.3522   -0.1469 C   0  0  0  0  0  0  0  0  0  0  0  0
   -1.6695   -0.9688   -0.4123 C   0  0  0  0  0  0  0  0  0  0  0  0
   -0.3244   -1.3471   -0.3711 C   0  0  0  0  0  0  0  0  0  0  0  0
    0.6710   -0.4143   -0.0703 C   0  0  0  0  0  0  0  0  0  0  0  0
    1.9423   -0.9173   -0.0635 O   0  0  0  0  0  0  0  0  0  0  0  0
    2.9930   -0.0054    0.2309 C   0  0  0  0  0  0  0  0  0  0  0  0
    0.3087    0.9075    0.1882 C   0  0  0  0  0  0  0  0  0  0  0  0
   -1.0383    1.2883    0.1475 C   0  0  0  0  0  0  0  0  0  0  0  0
   -4.2578   -0.2911    0.2473 H   0  0  0  0  0  0  0  0  0  0  0  0
   -2.4196   -1.7158   -0.6577 H   0  0  0  0  0  0  0  0  0  0  0  0
   -0.0491   -2.3785   -0.5786 H   0  0  0  0  0  0  0  0  0  0  0  0
    2.8870    0.4064    1.2400 H   0  0  0  0  0  0  0  0  0  0  0  0
    3.9361   -0.5592    0.1949 H   0  0  0  0  0  0  0  0  0  0  0  0
    3.0458    0.7913   -0.5185 H   0  0  0  0  0  0  0  0  0  0  0  0
    1.0453    1.6684    0.4233 H   0  0  0  0  0  0  0  0  0  0  0  0
   -1.3020    2.3242    0.3491 H   0  0  0  0  0  0  0  0  0  0  0  0
  1  2  1  0
  2  3  2  0
  3  4  1  0
  4  5  2  0
  5  6  1  0
  6  7  1  0
  5  8  1  0
  8  9  2  0
  9  2  1  0
  1 10  1  0
  3 11  1  0
  4 12  1  0
  7 13  1  0
  7 14  1  0
  7 15  1  0
  8 16  1  0
  9 17  1  0
M  END
