
     RDKit          3D

 19 20  0  0  0  0  0  0  0  0999 V2000
    3.7765    0.2207   -0.1611 C   0  0  0  0  0  0  0  0  0  0  0  0
    2.3429   -0.0985   -0.0450 C   0  0  0  0  0  0  0  0  0  0  0  0
    1.1833    0.5559   -0.3862 C   0  0  0  0  0  0  0  0  0  0  0  0
    0.1691   -0.3350    0.0130 C   0  0  0  0  0  0  0  0  0  0  0  0
   -1.2390   -0.1711   -0.1006 N   0  0  0  0  0  0  0  0  0  0  0  0
   -2.2097   -1.0695    0.3032 C   0  0  0  0  0  0  0  0  0  0  0  0
   -3.4537   -0.5487    0.0236 C   0  0  0  0  0  0  0  0  0  0  0  0
   -3.2525    0.7141   -0.5733 C   0  0  0  0  0  0  0  0  0  0  0  0
   -1.8917    0.9234   -0.6388 C   0  0  0  0  0  0  0  0  0  0  0  0
    0.6591   -1.4533    0.5584 N   0  0  0  0  0  0  0  0  0  0  0  0
    2.0372   -1.2993    0.5197 O   0  0  0  0  0  0  0  0  0  0  0  0
    4.2471    0.2369    0.8267 H   0  0  0  0  0  0  0  0  0  0  0  0
    4.2875   -0.5268   -0.7755 H   0  0  0  0  0  0  0  0  0  0  0  0
    3.9242    1.2010   -0.6246 H   0  0  0  0  0  0  0  0  0  0  0  0
    1.0974    1.5259   -0.8507 H   0  0  0  0  0  0  0  0  0  0  0  0
   -1.9254   -2.0095    0.7584 H   0  0  0  0  0  0  0  0  0  0  0  0
   -4.4007   -1.0312    0.2297 H   0  0  0  0  0  0  0  0  0  0  0  0
   -4.0157    1.3996   -0.9193 H   0  0  0  0  0  0  0  0  0  0  0  0
   -1.3359    1.7654   -1.0262 H   0  0  0  0  0  0  0  0  0  0  0  0
  1  2  1  0
  2  3  2  0
  3  4  1  0
  4  5  1  0
  5  6  1  0
  6  7  2  0
  7  8  1  0
  8  9  2  0
  4 10  2  0
 10 11  1  0
 11  2  1  0
  9  5  1  0
  1 12  1  0
  1 13  1  0
  1 14  1  0
  3 15  1  0
  6 16  1  0
  7 17  1  0
  8 18  1  0
  9 19  1  0
M  END
