
     RDKit          3D

 20 20  0  0  0  0  0  0  0  0999 V2000
    3.9683   -0.7229   -0.6921 C   0  0  0  0  0  0  0  0  0  0  0  0
    2.6789   -0.4906   -0.0190 C   0  0  0  0  0  0  0  0  0  0  0  0
    1.4479   -0.0442   -0.4272 C   0  0  0  0  0  0  0  0  0  0  0  0
    0.6468   -0.0619    0.7481 C   0  0  0  0  0  0  0  0  0  0  0  0
   -0.7588    0.3175    0.8897 C   0  0  0  0  0  0  0  0  0  0  0  0
   -1.2964    0.7298   -0.3019 O   0  0  0  0  0  0  0  0  0  0  0  0
   -2.6747    1.1271   -0.2613 C   0  0  0  0  0  0  0  0  0  0  0  0
   -3.5739   -0.0809   -0.4456 C   0  0  0  0  0  0  0  0  0  0  0  0
   -1.3889    0.2730    1.9407 O   0  0  0  0  0  0  0  0  0  0  0  0
    1.3689   -0.4965    1.7956 N   0  0  0  0  0  0  0  0  0  0  0  0
    2.6345   -0.7619    1.3105 O   0  0  0  0  0  0  0  0  0  0  0  0
    4.7516   -0.1031   -0.2451 H   0  0  0  0  0  0  0  0  0  0  0  0
    3.9055   -0.4768   -1.7566 H   0  0  0  0  0  0  0  0  0  0  0  0
    4.2645   -1.7725   -0.6023 H   0  0  0  0  0  0  0  0  0  0  0  0
    1.1567    0.2536   -1.4236 H   0  0  0  0  0  0  0  0  0  0  0  0
   -2.9090    1.6666    0.6634 H   0  0  0  0  0  0  0  0  0  0  0  0
   -2.8286    1.8283   -1.0882 H   0  0  0  0  0  0  0  0  0  0  0  0
   -3.3282   -0.6047   -1.3753 H   0  0  0  0  0  0  0  0  0  0  0  0
   -4.6251    0.2194   -0.4770 H   0  0  0  0  0  0  0  0  0  0  0  0
   -3.4400   -0.7993    0.3693 H   0  0  0  0  0  0  0  0  0  0  0  0
  1  2  1  0
  2  3  2  0
  3  4  1  0
  4  5  1  0
  5  6  1  0
  6  7  1  0
  7  8  1  0
  5  9  2  0
  4 10  2  0
 10 11  1  0
 11  2  1  0
  1 12  1  0
  1 13  1  0
  1 14  1  0
  3 15  1  0
  7 16  1  0
  7 17  1  0
  8 18  1  0
  8 19  1  0
  8 20  1  0
M  END
