
     RDKit          3D

 14 15  0  0  0  0  0  0  0  0999 V2000
   -0.7910    0.3148   -0.0268 C   0  0  0  0  0  0  0  0  0  0  0  0
   -2.1517    0.3060   -0.0803 C   0  0  0  0  0  0  0  0  0  0  0  0
   -2.5695   -0.9866   -0.1138 O   0  0  0  0  0  0  0  0  0  0  0  0
   -1.4783   -1.8428   -0.0824 N   0  0  0  0  0  0  0  0  0  0  0  0
   -0.3822   -1.0659   -0.0291 C   0  0  0  0  0  0  0  0  0  0  0  0
    0.9791   -1.4092    0.0197 C   0  0  0  0  0  0  0  0  0  0  0  0
    1.8430   -0.2914    0.0684 C   0  0  0  0  0  0  0  0  0  0  0  0
    1.3846    1.0653    0.0684 C   0  0  0  0  0  0  0  0  0  0  0  0
    0.0249    1.4378    0.0201 C   0  0  0  0  0  0  0  0  0  0  0  0
   -2.9304    1.0529   -0.1009 H   0  0  0  0  0  0  0  0  0  0  0  0
    1.3289   -2.4320    0.0198 H   0  0  0  0  0  0  0  0  0  0  0  0
    2.9181   -0.4706    0.1082 H   0  0  0  0  0  0  0  0  0  0  0  0
    2.1354    1.8563    0.1084 H   0  0  0  0  0  0  0  0  0  0  0  0
   -0.3109    2.4653    0.0205 H   0  0  0  0  0  0  0  0  0  0  0  0
  1  2  2  0
  2  3  1  0
  3  4  1  0
  4  5  2  0
  5  6  1  0
  6  7  2  0
  7  8  1  0
  8  9  2  0
  5  1  1  0
  9  1  1  0
  2 10  1  0
  6 11  1  0
  7 12  1  0
  8 13  1  0
  9 14  1  0
M  END
