
     RDKit          3D

 14 15  0  0  0  0  0  0  0  0999 V2000
    0.8250    0.3760    0.0058 C   0  0  0  0  0  0  0  0  0  0  0  0
    0.4280   -0.9413    0.1544 C   0  0  0  0  0  0  0  0  0  0  0  0
   -0.8955   -1.3500    0.2940 C   0  0  0  0  0  0  0  0  0  0  0  0
   -1.8594   -0.3354    0.2785 C   0  0  0  0  0  0  0  0  0  0  0  0
   -1.4961    1.0077    0.1303 C   0  0  0  0  0  0  0  0  0  0  0  0
   -0.1516    1.3847   -0.0082 C   0  0  0  0  0  0  0  0  0  0  0  0
    1.5242   -1.7483    0.1411 O   0  0  0  0  0  0  0  0  0  0  0  0
    2.6670   -0.9733   -0.0172 N   0  0  0  0  0  0  0  0  0  0  0  0
    2.2279    0.2868   -0.0955 C   0  0  0  0  0  0  0  0  0  0  0  0
   -1.1577   -2.3946    0.4077 H   0  0  0  0  0  0  0  0  0  0  0  0
   -2.9106   -0.5974    0.3838 H   0  0  0  0  0  0  0  0  0  0  0  0
   -2.2694    1.7739    0.1221 H   0  0  0  0  0  0  0  0  0  0  0  0
    0.1195    2.4298   -0.1226 H   0  0  0  0  0  0  0  0  0  0  0  0
    2.9488    1.0814   -0.2226 H   0  0  0  0  0  0  0  0  0  0  0  0
  1  2  1  0
  2  3  2  0
  3  4  1  0
  4  5  2  0
  5  6  1  0
  2  7  1  0
  7  8  1  0
  8  9  2  0
  9  1  1  0
  6  1  2  0
  3 10  1  0
  4 11  1  0
  5 12  1  0
  6 13  1  0
  9 14  1  0
M  END
