
     RDKit          3D

 21 21  0  0  0  0  0  0  0  0999 V2000
   -4.6642    0.2024    0.1571 C   0  0  0  0  0  0  0  0  0  0  0  0
   -3.4350    0.5401    0.7912 O   0  0  0  0  0  0  0  0  0  0  0  0
   -2.3399    0.0184    0.1956 C   0  0  0  0  0  0  0  0  0  0  0  0
   -2.4227   -0.7464   -0.8938 N   0  0  0  0  0  0  0  0  0  0  0  0
   -1.1095   -1.0807   -1.1974 O   0  0  0  0  0  0  0  0  0  0  0  0
   -0.2678   -0.5101   -0.2845 C   0  0  0  0  0  0  0  0  0  0  0  0
    1.1415   -0.7432   -0.4334 C   0  0  0  0  0  0  0  0  0  0  0  0
    1.8165   -0.0974    0.5636 O   0  0  0  0  0  0  0  0  0  0  0  0
    3.2443   -0.2425    0.5479 C   0  0  0  0  0  0  0  0  0  0  0  0
    3.8677    0.8111   -0.3482 C   0  0  0  0  0  0  0  0  0  0  0  0
    1.6733   -1.4106   -1.3112 O   0  0  0  0  0  0  0  0  0  0  0  0
   -1.0193    0.2027    0.6248 C   0  0  0  0  0  0  0  0  0  0  0  0
   -4.8373   -0.8793    0.1750 H   0  0  0  0  0  0  0  0  0  0  0  0
   -5.4720    0.6770    0.7229 H   0  0  0  0  0  0  0  0  0  0  0  0
   -4.7036    0.5905   -0.8668 H   0  0  0  0  0  0  0  0  0  0  0  0
    3.5906   -0.1010    1.5770 H   0  0  0  0  0  0  0  0  0  0  0  0
    3.5401   -1.2538    0.2461 H   0  0  0  0  0  0  0  0  0  0  0  0
    3.5371    0.6914   -1.3848 H   0  0  0  0  0  0  0  0  0  0  0  0
    4.9592    0.7473   -0.3203 H   0  0  0  0  0  0  0  0  0  0  0  0
    3.5641    1.8141   -0.0309 H   0  0  0  0  0  0  0  0  0  0  0  0
   -0.6630    0.7699    1.4704 H   0  0  0  0  0  0  0  0  0  0  0  0
  1  2  1  0
  2  3  1  0
  3  4  2  0
  4  5  1  0
  5  6  1  0
  6  7  1  0
  7  8  1  0
  8  9  1  0
  9 10  1  0
  7 11  2  0
  6 12  2  0
 12  3  1  0
  1 13  1  0
  1 14  1  0
  1 15  1  0
  9 16  1  0
  9 17  1  0
 10 18  1  0
 10 19  1  0
 10 20  1  0
 12 21  1  0
M  END
