
     RDKit          3D

 20 20  0  0  0  0  0  0  0  0999 V2000
    4.1379   -0.2443    0.8815 C   0  0  0  0  0  0  0  0  0  0  0  0
    2.7469   -0.2964    0.3796 C   0  0  0  0  0  0  0  0  0  0  0  0
    2.3835   -1.2364   -0.5004 N   0  0  0  0  0  0  0  0  0  0  0  0
    1.0426   -1.0102   -0.7605 O   0  0  0  0  0  0  0  0  0  0  0  0
    0.6087    0.0615   -0.0376 C   0  0  0  0  0  0  0  0  0  0  0  0
   -0.7586    0.4919   -0.1410 C   0  0  0  0  0  0  0  0  0  0  0  0
   -1.4461   -0.3040   -1.0092 O   0  0  0  0  0  0  0  0  0  0  0  0
   -2.8284    0.0240   -1.2057 C   0  0  0  0  0  0  0  0  0  0  0  0
   -3.6824   -0.6540   -0.1508 C   0  0  0  0  0  0  0  0  0  0  0  0
   -1.2420    1.4397    0.4673 O   0  0  0  0  0  0  0  0  0  0  0  0
    1.6628    0.5472    0.7035 C   0  0  0  0  0  0  0  0  0  0  0  0
    4.3978   -1.1766    1.3931 H   0  0  0  0  0  0  0  0  0  0  0  0
    4.2708    0.5789    1.5909 H   0  0  0  0  0  0  0  0  0  0  0  0
    4.8401   -0.0948    0.0550 H   0  0  0  0  0  0  0  0  0  0  0  0
   -3.1070   -0.3462   -2.1978 H   0  0  0  0  0  0  0  0  0  0  0  0
   -2.9843    1.1088   -1.2123 H   0  0  0  0  0  0  0  0  0  0  0  0
   -3.5165   -1.7362   -0.1592 H   0  0  0  0  0  0  0  0  0  0  0  0
   -4.7439   -0.4582   -0.3266 H   0  0  0  0  0  0  0  0  0  0  0  0
   -3.4232   -0.3000    0.8520 H   0  0  0  0  0  0  0  0  0  0  0  0
    1.6413    1.3905    1.3782 H   0  0  0  0  0  0  0  0  0  0  0  0
  1  2  1  0
  2  3  2  0
  3  4  1  0
  4  5  1  0
  5  6  1  0
  6  7  1  0
  7  8  1  0
  8  9  1  0
  6 10  2  0
  5 11  2  0
 11  2  1  0
  1 12  1  0
  1 13  1  0
  1 14  1  0
  8 15  1  0
  8 16  1  0
  9 17  1  0
  9 18  1  0
  9 19  1  0
 11 20  1  0
M  END
