
     RDKit          3D

 17 17  0  0  0  0  0  0  0  0999 V2000
   -2.8714    0.6019    0.2613 C   0  0  0  0  0  0  0  0  0  0  0  0
   -2.1844   -0.6817   -0.1655 C   0  0  0  0  0  0  0  0  0  0  0  0
   -0.8341   -0.7039    0.3150 O   0  0  0  0  0  0  0  0  0  0  0  0
    0.0996   -0.1032   -0.4816 C   0  0  0  0  0  0  0  0  0  0  0  0
    1.4540   -0.1661    0.0650 C   0  0  0  0  0  0  0  0  0  0  0  0
    1.7447   -0.7601    1.2363 N   0  0  0  0  0  0  0  0  0  0  0  0
    3.1088   -0.6162    1.4109 O   0  0  0  0  0  0  0  0  0  0  0  0
    3.6313    0.0557    0.3580 C   0  0  0  0  0  0  0  0  0  0  0  0
    2.6326    0.3661   -0.5246 C   0  0  0  0  0  0  0  0  0  0  0  0
   -0.1556    0.4422   -1.5511 O   0  0  0  0  0  0  0  0  0  0  0  0
   -2.8256    0.7190    1.3491 H   0  0  0  0  0  0  0  0  0  0  0  0
   -3.9198    0.6027   -0.0499 H   0  0  0  0  0  0  0  0  0  0  0  0
   -2.3770    1.4761   -0.1740 H   0  0  0  0  0  0  0  0  0  0  0  0
   -2.6975   -1.5392    0.2820 H   0  0  0  0  0  0  0  0  0  0  0  0
   -2.2237   -0.8159   -1.2525 H   0  0  0  0  0  0  0  0  0  0  0  0
    4.6974    0.2252    0.3911 H   0  0  0  0  0  0  0  0  0  0  0  0
    2.7207    0.8973   -1.4607 H   0  0  0  0  0  0  0  0  0  0  0  0
  1  2  1  0
  2  3  1  0
  3  4  1  0
  4  5  1  0
  5  6  2  0
  6  7  1  0
  7  8  1  0
  8  9  2  0
  4 10  2  0
  9  5  1  0
  1 11  1  0
  1 12  1  0
  1 13  1  0
  2 14  1  0
  2 15  1  0
  8 16  1  0
  9 17  1  0
M  END
