
     RDKit          3D

 11 11  0  0  0  0  0  0  0  0999 V2000
    3.1199    0.9493    0.2340 I   0  0  0  0  0  0  0  0  0  0  0  0
    1.1771    0.2540    0.0934 C   0  0  0  0  0  0  0  0  0  0  0  0
    0.9019   -1.1049    0.1352 C   0  0  0  0  0  0  0  0  0  0  0  0
   -0.3476   -1.6224    0.0482 N   0  0  0  0  0  0  0  0  0  0  0  0
   -1.3606   -0.7389   -0.0862 C   0  0  0  0  0  0  0  0  0  0  0  0
   -1.1823    0.6352   -0.1374 C   0  0  0  0  0  0  0  0  0  0  0  0
    0.1132    1.1397   -0.0457 C   0  0  0  0  0  0  0  0  0  0  0  0
    1.6894   -1.8455    0.2423 H   0  0  0  0  0  0  0  0  0  0  0  0
   -2.3522   -1.1780   -0.1538 H   0  0  0  0  0  0  0  0  0  0  0  0
   -2.0335    1.2982   -0.2465 H   0  0  0  0  0  0  0  0  0  0  0  0
    0.2748    2.2132   -0.0837 H   0  0  0  0  0  0  0  0  0  0  0  0
  1  2  1  0
  2  3  2  0
  3  4  1  0
  4  5  2  0
  5  6  1  0
  6  7  2  0
  7  2  1  0
  3  8  1  0
  5  9  1  0
  6 10  1  0
  7 11  1  0
M  END
