
     RDKit          3D

 18 18  0  0  0  0  0  0  0  0999 V2000
    4.3841   -0.6465   -0.0709 Br  0  0  0  0  0  0  0  0  0  0  0  0
    2.5321   -0.2724   -0.1354 C   0  0  0  0  0  0  0  0  0  0  0  0
    1.9897    0.6844    0.7197 C   0  0  0  0  0  0  0  0  0  0  0  0
    0.6214    0.9598    0.6719 C   0  0  0  0  0  0  0  0  0  0  0  0
   -0.2086    0.2838   -0.2333 C   0  0  0  0  0  0  0  0  0  0  0  0
   -1.6886    0.5692   -0.2721 C   0  0  0  0  0  0  0  0  0  0  0  0
   -2.4622   -0.3257    0.6840 C   0  0  0  0  0  0  0  0  0  0  0  0
    0.3511   -0.6808   -1.0826 C   0  0  0  0  0  0  0  0  0  0  0  0
    1.7192   -0.9573   -1.0360 C   0  0  0  0  0  0  0  0  0  0  0  0
    2.6197    1.2186    1.4256 H   0  0  0  0  0  0  0  0  0  0  0  0
    0.2056    1.7052    1.3464 H   0  0  0  0  0  0  0  0  0  0  0  0
   -2.0639    0.4326   -1.2936 H   0  0  0  0  0  0  0  0  0  0  0  0
   -1.8679    1.6219   -0.0217 H   0  0  0  0  0  0  0  0  0  0  0  0
   -3.5315   -0.0970    0.6348 H   0  0  0  0  0  0  0  0  0  0  0  0
   -2.1316   -0.1820    1.7182 H   0  0  0  0  0  0  0  0  0  0  0  0
   -2.3296   -1.3837    0.4331 H   0  0  0  0  0  0  0  0  0  0  0  0
   -0.2770   -1.2236   -1.7858 H   0  0  0  0  0  0  0  0  0  0  0  0
    2.1378   -1.7064   -1.7025 H   0  0  0  0  0  0  0  0  0  0  0  0
  1  2  1  0
  2  3  2  0
  3  4  1  0
  4  5  2  0
  5  6  1  0
  6  7  1  0
  5  8  1  0
  8  9  2  0
  9  2  1  0
  3 10  1  0
  4 11  1  0
  6 12  1  0
  6 13  1  0
  7 14  1  0
  7 15  1  0
  7 16  1  0
  8 17  1  0
  9 18  1  0
M  END
