
     RDKit          3D

 11 11  0  0  0  0  0  0  0  0999 V2000
    3.3962   -0.6461   -0.0076 I   0  0  0  0  0  0  0  0  0  0  0  0
    1.3270   -0.3651   -0.0100 C   0  0  0  0  0  0  0  0  0  0  0  0
    0.5510   -1.4692   -0.0858 N   0  0  0  0  0  0  0  0  0  0  0  0
   -0.7850   -1.2751   -0.0866 C   0  0  0  0  0  0  0  0  0  0  0  0
   -1.3828   -0.0273   -0.0149 C   0  0  0  0  0  0  0  0  0  0  0  0
   -0.5615    1.0920    0.0623 C   0  0  0  0  0  0  0  0  0  0  0  0
    0.8210    0.9253    0.0652 C   0  0  0  0  0  0  0  0  0  0  0  0
   -1.3836   -2.1797   -0.1484 H   0  0  0  0  0  0  0  0  0  0  0  0
   -2.4629    0.0693   -0.0193 H   0  0  0  0  0  0  0  0  0  0  0  0
   -0.9938    2.0871    0.1199 H   0  0  0  0  0  0  0  0  0  0  0  0
    1.4743    1.7887    0.1250 H   0  0  0  0  0  0  0  0  0  0  0  0
  1  2  1  0
  2  3  2  0
  3  4  1  0
  4  5  2  0
  5  6  1  0
  6  7  2  0
  7  2  1  0
  4  8  1  0
  5  9  1  0
  6 10  1  0
  7 11  1  0
M  END
