
     RDKit          3D

 15 15  0  0  0  0  0  0  0  0999 V2000
    3.7855   -0.0713   -0.1568 Cl  0  0  0  0  0  0  0  0  0  0  0  0
    2.0670   -0.0396   -0.0894 C   0  0  0  0  0  0  0  0  0  0  0  0
    1.3894    1.1658   -0.2604 C   0  0  0  0  0  0  0  0  0  0  0  0
   -0.0068    1.1922   -0.2053 C   0  0  0  0  0  0  0  0  0  0  0  0
   -0.7347    0.0112    0.0147 C   0  0  0  0  0  0  0  0  0  0  0  0
   -2.2428    0.0430    0.0972 C   0  0  0  0  0  0  0  0  0  0  0  0
   -2.6859    0.2603    1.3656 F   0  0  0  0  0  0  0  0  0  0  0  0
   -2.7986    1.0234   -0.6678 F   0  0  0  0  0  0  0  0  0  0  0  0
   -2.8242   -1.1198   -0.3095 F   0  0  0  0  0  0  0  0  0  0  0  0
   -0.0352   -1.1936    0.1938 C   0  0  0  0  0  0  0  0  0  0  0  0
    1.3610   -1.2190    0.1385 C   0  0  0  0  0  0  0  0  0  0  0  0
    1.9404    2.0866   -0.4350 H   0  0  0  0  0  0  0  0  0  0  0  0
   -0.5271    2.1404   -0.3368 H   0  0  0  0  0  0  0  0  0  0  0  0
   -0.5778   -2.1207    0.3760 H   0  0  0  0  0  0  0  0  0  0  0  0
    1.8899   -2.1590    0.2752 H   0  0  0  0  0  0  0  0  0  0  0  0
  1  2  1  0
  2  3  2  0
  3  4  1  0
  4  5  2  0
  5  6  1  0
  6  7  1  0
  6  8  1  0
  6  9  1  0
  5 10  1  0
 10 11  2  0
 11  2  1  0
  3 12  1  0
  4 13  1  0
 10 14  1  0
 11 15  1  0
M  END
