
     RDKit          3D

 56 55  0  0  0  0  0  0  0  0999 V2000
   -1.4268    1.0185    2.0931 C   0  0  0  0  0  0  0  0  0  0  0  0
   -1.9483    0.0205    1.1679 N   0  0  0  0  0  0  0  0  0  0  0  0
   -3.2488   -0.4414    1.6079 C   0  0  0  0  0  0  0  0  0  0  0  0
   -1.5333    0.1424   -0.4090 P   0  0  0  0  0  5  0  0  0  0  0  0
   -2.2355    1.5037   -1.0402 N   0  0  0  0  0  0  0  0  0  0  0  0
   -3.6476    1.7614   -0.8360 C   0  0  0  0  0  0  0  0  0  0  0  0
   -1.4736    2.7459   -0.9775 C   0  0  0  0  0  0  0  0  0  0  0  0
   -2.1919   -1.1220   -1.2616 N   0  0  0  0  0  0  0  0  0  0  0  0
   -2.1198   -1.0148   -2.7185 C   0  0  0  0  0  0  0  0  0  0  0  0
   -1.7145   -2.4524   -0.8835 C   0  0  0  0  0  0  0  0  0  0  0  0
    0.1139    0.2215   -0.7043 N   0  0  0  0  0  0  0  0  0  0  0  0
    1.4707   -0.3988    0.0555 P   0  0  0  0  0  5  0  0  0  0  0  0
    1.2969   -0.6271    1.6620 N   0  0  0  0  0  0  0  0  0  0  0  0
    0.6936   -1.8528    2.1476 C   0  0  0  0  0  0  0  0  0  0  0  0
    2.2870   -0.1249    2.5966 C   0  0  0  0  0  0  0  0  0  0  0  0
    2.0019   -1.7948   -0.6594 N   0  0  0  0  0  0  0  0  0  0  0  0
    2.0336   -1.7723   -2.1226 C   0  0  0  0  0  0  0  0  0  0  0  0
    3.2772   -2.3353   -0.1937 C   0  0  0  0  0  0  0  0  0  0  0  0
    2.7387    0.7312   -0.2092 N   0  0  0  0  0  0  0  0  0  0  0  0
    2.3562    2.1238   -0.3321 C   0  0  0  0  0  0  0  0  0  0  0  0
    3.5929    3.0115   -0.2822 C   0  0  0  0  0  0  0  0  0  0  0  0
   -1.3276    0.6049    3.1026 H   0  0  0  0  0  0  0  0  0  0  0  0
   -2.0858    1.8907    2.1402 H   0  0  0  0  0  0  0  0  0  0  0  0
   -0.4401    1.3827    1.7973 H   0  0  0  0  0  0  0  0  0  0  0  0
   -3.1893   -0.8570    2.6204 H   0  0  0  0  0  0  0  0  0  0  0  0
   -3.9904    0.3624    1.6161 H   0  0  0  0  0  0  0  0  0  0  0  0
   -3.6376   -1.2408    0.9721 H   0  0  0  0  0  0  0  0  0  0  0  0
   -4.2393    0.8467   -0.9583 H   0  0  0  0  0  0  0  0  0  0  0  0
   -3.8448    2.1708    0.1611 H   0  0  0  0  0  0  0  0  0  0  0  0
   -4.0258    2.4728   -1.5757 H   0  0  0  0  0  0  0  0  0  0  0  0
   -1.9920    3.5625   -1.4951 H   0  0  0  0  0  0  0  0  0  0  0  0
   -1.2957    3.0578    0.0548 H   0  0  0  0  0  0  0  0  0  0  0  0
   -0.5132    2.6449   -1.4898 H   0  0  0  0  0  0  0  0  0  0  0  0
   -2.6248   -0.1124   -3.0720 H   0  0  0  0  0  0  0  0  0  0  0  0
   -2.6332   -1.8526   -3.2024 H   0  0  0  0  0  0  0  0  0  0  0  0
   -1.0903   -0.9920   -3.0822 H   0  0  0  0  0  0  0  0  0  0  0  0
   -2.3139   -3.2295   -1.3699 H   0  0  0  0  0  0  0  0  0  0  0  0
   -0.6681   -2.6141   -1.1441 H   0  0  0  0  0  0  0  0  0  0  0  0
   -1.8338   -2.6185    0.1901 H   0  0  0  0  0  0  0  0  0  0  0  0
   -0.0896   -2.2045    1.4717 H   0  0  0  0  0  0  0  0  0  0  0  0
    1.4304   -2.6573    2.2461 H   0  0  0  0  0  0  0  0  0  0  0  0
    0.2175   -1.7018    3.1236 H   0  0  0  0  0  0  0  0  0  0  0  0
    1.9510   -0.2168    3.6357 H   0  0  0  0  0  0  0  0  0  0  0  0
    2.4728    0.9414    2.4394 H   0  0  0  0  0  0  0  0  0  0  0  0
    3.2386   -0.6563    2.4992 H   0  0  0  0  0  0  0  0  0  0  0  0
    2.2358   -2.7709   -2.5257 H   0  0  0  0  0  0  0  0  0  0  0  0
    1.0696   -1.4716   -2.5379 H   0  0  0  0  0  0  0  0  0  0  0  0
    2.7966   -1.0854   -2.5044 H   0  0  0  0  0  0  0  0  0  0  0  0
    4.1180   -1.6858   -0.4602 H   0  0  0  0  0  0  0  0  0  0  0  0
    3.4609   -3.3291   -0.6173 H   0  0  0  0  0  0  0  0  0  0  0  0
    3.2820   -2.4654    0.8912 H   0  0  0  0  0  0  0  0  0  0  0  0
    1.6769    2.4377    0.4649 H   0  0  0  0  0  0  0  0  0  0  0  0
    1.8428    2.3116   -1.2843 H   0  0  0  0  0  0  0  0  0  0  0  0
    4.3122    2.7389   -1.0597 H   0  0  0  0  0  0  0  0  0  0  0  0
    3.3113    4.0581   -0.4354 H   0  0  0  0  0  0  0  0  0  0  0  0
    4.0963    2.9343    0.6877 H   0  0  0  0  0  0  0  0  0  0  0  0
  1  2  1  0
  2  3  1  0
  2  4  1  0
  4  5  1  0
  5  6  1  0
  5  7  1  0
  4  8  1  0
  8  9  1  0
  8 10  1  0
  4 11  2  3
 11 12  1  0
 12 13  1  0
 13 14  1  0
 13 15  1  0
 12 16  1  0
 16 17  1  0
 16 18  1  0
 12 19  2  3
 19 20  1  0
 20 21  1  0
  1 22  1  0
  1 23  1  0
  1 24  1  0
  3 25  1  0
  3 26  1  0
  3 27  1  0
  6 28  1  0
  6 29  1  0
  6 30  1  0
  7 31  1  0
  7 32  1  0
  7 33  1  0
  9 34  1  0
  9 35  1  0
  9 36  1  0
 10 37  1  0
 10 38  1  0
 10 39  1  0
 14 40  1  0
 14 41  1  0
 14 42  1  0
 15 43  1  0
 15 44  1  0
 15 45  1  0
 17 46  1  0
 17 47  1  0
 17 48  1  0
 18 49  1  0
 18 50  1  0
 18 51  1  0
 20 52  1  0
 20 53  1  0
 21 54  1  0
 21 55  1  0
 21 56  1  0
M  END
