
     RDKit          3D

 83 84  0  0  0  0  0  0  0  0999 V2000
    1.2140   -1.4399   -3.2385 C   0  0  0  0  0  0  0  0  0  0  0  0
    1.4653   -1.7568   -1.7585 C   0  0  0  0  0  0  0  0  0  0  0  0
    2.5756   -2.8033   -1.6228 C   0  0  0  0  0  0  0  0  0  0  0  0
    1.7916   -0.5102   -0.9365 C   0  0  0  0  0  0  0  0  0  0  0  0
    2.8190    0.3441   -1.3938 C   0  0  0  0  0  0  0  0  0  0  0  0
    3.2487    1.4513   -0.6581 C   0  0  0  0  0  0  0  0  0  0  0  0
    4.3797    2.3204   -1.1784 C   0  0  0  0  0  0  0  0  0  0  0  0
    3.9284    3.7685   -1.3805 C   0  0  0  0  0  0  0  0  0  0  0  0
    5.6071    2.2506   -0.2677 C   0  0  0  0  0  0  0  0  0  0  0  0
    2.6424    1.6994    0.5749 C   0  0  0  0  0  0  0  0  0  0  0  0
    1.6110    0.8822    1.0815 C   0  0  0  0  0  0  0  0  0  0  0  0
    1.0947    1.1771    2.4961 C   0  0  0  0  0  0  0  0  0  0  0  0
    2.1433    0.7782    3.5455 C   0  0  0  0  0  0  0  0  0  0  0  0
    0.6917    2.6429    2.7190 C   0  0  0  0  0  0  0  0  0  0  0  0
    1.1477   -0.2286    0.3028 C   0  0  0  0  0  0  0  0  0  0  0  0
    0.0809   -1.1282    0.8489 C   0  0  0  0  0  0  0  0  0  0  0  0
   -1.3162   -0.9842    0.5283 C   0  0  0  0  0  0  0  0  0  0  0  0
   -1.8368    0.0618   -0.9071 P   0  0  0  0  0  0  0  0  0  0  0  0
   -3.0057   -0.8625   -2.0104 C   0  0  0  0  0  0  0  0  0  0  0  0
   -4.5084   -0.7143   -1.7207 C   0  0  0  0  0  0  0  0  0  0  0  0
   -2.6657   -2.3736   -2.0337 C   0  0  0  0  0  0  0  0  0  0  0  0
   -2.7711   -0.3653   -3.4645 C   0  0  0  0  0  0  0  0  0  0  0  0
   -2.4568    1.6968   -0.3100 C   0  0  0  0  0  0  0  0  0  0  0  0
   -2.7543    1.7205    1.1967 C   0  0  0  0  0  0  0  0  0  0  0  0
   -1.3336    2.7208   -0.6078 C   0  0  0  0  0  0  0  0  0  0  0  0
   -3.7034    2.2397   -1.0218 C   0  0  0  0  0  0  0  0  0  0  0  0
   -2.2491   -1.7317    1.2969 C   0  0  0  0  0  0  0  0  0  0  0  0
   -3.5833   -1.5145    1.0715 O   0  0  0  0  0  0  0  0  0  0  0  0
   -4.5101   -1.9341    2.0647 C   0  0  0  0  0  0  0  0  0  0  0  0
   -1.8132   -2.6767    2.2333 C   0  0  0  0  0  0  0  0  0  0  0  0
   -0.4589   -2.8950    2.4515 C   0  0  0  0  0  0  0  0  0  0  0  0
    0.4877   -2.1341    1.7741 C   0  0  0  0  0  0  0  0  0  0  0  0
    1.8424   -2.2838    1.9584 O   0  0  0  0  0  0  0  0  0  0  0  0
    2.2984   -3.4206    2.6770 C   0  0  0  0  0  0  0  0  0  0  0  0
    2.1386   -1.1836   -3.7670 H   0  0  0  0  0  0  0  0  0  0  0  0
    0.5169   -0.6038   -3.3555 H   0  0  0  0  0  0  0  0  0  0  0  0
    0.7864   -2.3112   -3.7458 H   0  0  0  0  0  0  0  0  0  0  0  0
    0.5488   -2.2200   -1.3844 H   0  0  0  0  0  0  0  0  0  0  0  0
    2.3050   -3.7268   -2.1477 H   0  0  0  0  0  0  0  0  0  0  0  0
    2.7522   -3.0549   -0.5727 H   0  0  0  0  0  0  0  0  0  0  0  0
    3.5243   -2.4475   -2.0410 H   0  0  0  0  0  0  0  0  0  0  0  0
    3.3204    0.1197   -2.3327 H   0  0  0  0  0  0  0  0  0  0  0  0
    4.6869    1.9414   -2.1617 H   0  0  0  0  0  0  0  0  0  0  0  0
    3.6371    4.2438   -0.4389 H   0  0  0  0  0  0  0  0  0  0  0  0
    4.7329    4.3669   -1.8209 H   0  0  0  0  0  0  0  0  0  0  0  0
    3.0710    3.8165   -2.0619 H   0  0  0  0  0  0  0  0  0  0  0  0
    5.3993    2.6394    0.7353 H   0  0  0  0  0  0  0  0  0  0  0  0
    5.9553    1.2151   -0.1617 H   0  0  0  0  0  0  0  0  0  0  0  0
    6.4308    2.8389   -0.6840 H   0  0  0  0  0  0  0  0  0  0  0  0
    3.0043    2.5316    1.1742 H   0  0  0  0  0  0  0  0  0  0  0  0
    0.1955    0.5851    2.6961 H   0  0  0  0  0  0  0  0  0  0  0  0
    3.0535    1.3842    3.4602 H   0  0  0  0  0  0  0  0  0  0  0  0
    2.4306   -0.2714    3.4505 H   0  0  0  0  0  0  0  0  0  0  0  0
    1.7453    0.9231    4.5567 H   0  0  0  0  0  0  0  0  0  0  0  0
    0.2261    2.7613    3.7048 H   0  0  0  0  0  0  0  0  0  0  0  0
    1.5533    3.3205    2.6893 H   0  0  0  0  0  0  0  0  0  0  0  0
   -0.0251    2.9892    1.9708 H   0  0  0  0  0  0  0  0  0  0  0  0
   -4.9409    0.1422   -2.2552 H   0  0  0  0  0  0  0  0  0  0  0  0
   -4.7449   -0.5812   -0.6637 H   0  0  0  0  0  0  0  0  0  0  0  0
   -5.0693   -1.5921   -2.0721 H   0  0  0  0  0  0  0  0  0  0  0  0
   -1.6081   -2.5557   -2.2504 H   0  0  0  0  0  0  0  0  0  0  0  0
   -2.9108   -2.8692   -1.0904 H   0  0  0  0  0  0  0  0  0  0  0  0
   -3.2428   -2.8914   -2.8101 H   0  0  0  0  0  0  0  0  0  0  0  0
   -2.9492    0.7112   -3.5766 H   0  0  0  0  0  0  0  0  0  0  0  0
   -3.4466   -0.8771   -4.1619 H   0  0  0  0  0  0  0  0  0  0  0  0
   -1.7487   -0.5644   -3.8043 H   0  0  0  0  0  0  0  0  0  0  0  0
   -1.8978    1.4052    1.7977 H   0  0  0  0  0  0  0  0  0  0  0  0
   -3.6014    1.0744    1.4511 H   0  0  0  0  0  0  0  0  0  0  0  0
   -3.0155    2.7318    1.5312 H   0  0  0  0  0  0  0  0  0  0  0  0
   -1.1763    2.8350   -1.6874 H   0  0  0  0  0  0  0  0  0  0  0  0
   -0.3748    2.4247   -0.1785 H   0  0  0  0  0  0  0  0  0  0  0  0
   -1.5812    3.7127   -0.2086 H   0  0  0  0  0  0  0  0  0  0  0  0
   -3.8801    3.2890   -0.7525 H   0  0  0  0  0  0  0  0  0  0  0  0
   -4.6072    1.7071   -0.7153 H   0  0  0  0  0  0  0  0  0  0  0  0
   -3.6194    2.2081   -2.1111 H   0  0  0  0  0  0  0  0  0  0  0  0
   -4.6238   -3.0229    2.0547 H   0  0  0  0  0  0  0  0  0  0  0  0
   -4.2280   -1.5727    3.0587 H   0  0  0  0  0  0  0  0  0  0  0  0
   -5.4823   -1.4968    1.8179 H   0  0  0  0  0  0  0  0  0  0  0  0
   -2.5131   -3.2867    2.7955 H   0  0  0  0  0  0  0  0  0  0  0  0
   -0.1760   -3.6509    3.1751 H   0  0  0  0  0  0  0  0  0  0  0  0
    2.0275   -3.3494    3.7350 H   0  0  0  0  0  0  0  0  0  0  0  0
    1.9272   -4.3495    2.2310 H   0  0  0  0  0  0  0  0  0  0  0  0
    3.3913   -3.4359    2.6176 H   0  0  0  0  0  0  0  0  0  0  0  0
  1  2  1  0
  2  3  1  0
  2  4  1  0
  4  5  2  0
  5  6  1  0
  6  7  1  0
  7  8  1  0
  7  9  1  0
  6 10  2  0
 10 11  1  0
 11 12  1  0
 12 13  1  0
 12 14  1  0
  4 15  1  0
 15 16  1  0
 16 17  2  0
 17 18  1  0
 18 19  1  0
 19 20  1  0
 19 21  1  0
 19 22  1  0
 18 23  1  0
 23 24  1  0
 23 25  1  0
 23 26  1  0
 17 27  1  0
 27 28  1  0
 28 29  1  0
 27 30  2  0
 30 31  1  0
 31 32  2  0
 32 33  1  0
 33 34  1  0
 15 11  2  0
 32 16  1  0
  1 35  1  0
  1 36  1  0
  1 37  1  0
  2 38  1  0
  3 39  1  0
  3 40  1  0
  3 41  1  0
  5 42  1  0
  7 43  1  0
  8 44  1  0
  8 45  1  0
  8 46  1  0
  9 47  1  0
  9 48  1  0
  9 49  1  0
 10 50  1  0
 12 51  1  0
 13 52  1  0
 13 53  1  0
 13 54  1  0
 14 55  1  0
 14 56  1  0
 14 57  1  0
 20 58  1  0
 20 59  1  0
 20 60  1  0
 21 61  1  0
 21 62  1  0
 21 63  1  0
 22 64  1  0
 22 65  1  0
 22 66  1  0
 24 67  1  0
 24 68  1  0
 24 69  1  0
 25 70  1  0
 25 71  1  0
 25 72  1  0
 26 73  1  0
 26 74  1  0
 26 75  1  0
 29 76  1  0
 29 77  1  0
 29 78  1  0
 30 79  1  0
 31 80  1  0
 34 81  1  0
 34 82  1  0
 34 83  1  0
M  END
