
     RDKit          3D

107114  0  0  0  0  0  0  0  0999 V2000
    1.7891    2.9354   -1.8800 C   0  0  0  0  0  0  0  0  0  0  0  0
    2.7357    2.6500   -0.7082 C   0  0  0  0  0  0  0  0  0  0  0  0
    4.1689    2.9662   -1.1966 C   0  0  0  0  0  0  0  0  0  0  0  0
    2.7333    1.3123    0.0577 C   0  0  0  0  0  0  0  0  0  0  0  0
    3.4089    1.3775    1.3052 C   0  0  0  0  0  0  0  0  0  0  0  0
    3.6760    0.2555    2.0915 C   0  0  0  0  0  0  0  0  0  0  0  0
    4.4224    0.3541    3.4100 C   0  0  0  0  0  0  0  0  0  0  0  0
    3.6848    1.2444    4.4134 C   0  0  0  0  0  0  0  0  0  0  0  0
    5.8605    0.8379    3.2050 C   0  0  0  0  0  0  0  0  0  0  0  0
    3.2783   -0.9867    1.6045 C   0  0  0  0  0  0  0  0  0  0  0  0
    2.5591   -1.1181    0.3979 C   0  0  0  0  0  0  0  0  0  0  0  0
    2.2584   -2.5334   -0.1084 C   0  0  0  0  0  0  0  0  0  0  0  0
    3.5074   -3.1547   -0.7439 C   0  0  0  0  0  0  0  0  0  0  0  0
    1.7201   -3.4712    0.9819 C   0  0  0  0  0  0  0  0  0  0  0  0
    2.2143    0.0514   -0.3580 C   0  0  0  0  0  0  0  0  0  0  0  0
    1.3694   -0.0806   -1.5794 C   0  0  0  0  0  0  0  0  0  0  0  0
   -0.0780   -0.0968   -1.5318 C   0  0  0  0  0  0  0  0  0  0  0  0
   -0.9506   -0.2839    0.1015 P   0  0  0  0  0  0  0  0  0  0  0  0
   -2.1771   -1.6911    0.0401 C   0  0  1  0  0  0  0  0  0  0  0  0
   -3.6239   -1.3642   -0.3992 C   0  0  0  0  0  0  0  0  0  0  0  0
   -4.5349   -2.6058   -0.3362 C   0  0  2  0  0  0  0  0  0  0  0  0
   -4.5766   -3.1445    1.0995 C   0  0  0  0  0  0  0  0  0  0  0  0
   -1.6538   -2.8364   -0.8818 C   0  0  0  0  0  0  0  0  0  0  0  0
   -2.5644   -4.0768   -0.8308 C   0  0  2  0  0  0  0  0  0  0  0  0
   -3.9801   -3.6874   -1.2745 C   0  0  0  0  0  0  0  0  0  0  0  0
   -2.6076   -4.6142    0.6047 C   0  0  0  0  0  0  0  0  0  0  0  0
   -3.1625   -3.5351    1.5451 C   0  0  1  0  0  0  0  0  0  0  0  0
   -2.2570   -2.2921    1.4870 C   0  0  0  0  0  0  0  0  0  0  0  0
   -1.7232    1.3194    0.6332 C   0  0  2  0  0  0  0  0  0  0  0  0
   -2.5599    2.0130   -0.4646 C   0  0  0  0  0  0  0  0  0  0  0  0
   -0.5853    2.2972    1.0566 C   0  0  0  0  0  0  0  0  0  0  0  0
   -1.1321    3.6564    1.5261 C   0  0  1  0  0  0  0  0  0  0  0  0
   -1.9589    4.2854    0.3974 C   0  0  0  0  0  0  0  0  0  0  0  0
   -3.1258    3.3579    0.0252 C   0  0  2  0  0  0  0  0  0  0  0  0
   -4.0092    3.1196    1.2598 C   0  0  0  0  0  0  0  0  0  0  0  0
   -2.0236    3.4417    2.7555 C   0  0  0  0  0  0  0  0  0  0  0  0
   -3.1754    2.4983    2.3909 C   0  0  2  0  0  0  0  0  0  0  0  0
   -2.5947    1.1543    1.9150 C   0  0  0  0  0  0  0  0  0  0  0  0
   -0.7726   -0.0656   -2.7724 C   0  0  0  0  0  0  0  0  0  0  0  0
   -2.1394    0.0290   -2.7337 O   0  0  0  0  0  0  0  0  0  0  0  0
   -2.8628    0.0198   -3.9579 C   0  0  0  0  0  0  0  0  0  0  0  0
   -0.0735   -0.1277   -3.9864 C   0  0  0  0  0  0  0  0  0  0  0  0
    1.3135   -0.2165   -4.0175 C   0  0  0  0  0  0  0  0  0  0  0  0
    2.0402   -0.1768   -2.8335 C   0  0  0  0  0  0  0  0  0  0  0  0
    3.4140   -0.2211   -2.7960 O   0  0  0  0  0  0  0  0  0  0  0  0
    4.1177    0.0260   -4.0042 C   0  0  0  0  0  0  0  0  0  0  0  0
    2.1294    2.4700   -2.8074 H   0  0  0  0  0  0  0  0  0  0  0  0
    0.7589    2.6345   -1.6955 H   0  0  0  0  0  0  0  0  0  0  0  0
    1.7729    4.0147   -2.0783 H   0  0  0  0  0  0  0  0  0  0  0  0
    2.4717    3.4096    0.0437 H   0  0  0  0  0  0  0  0  0  0  0  0
    4.9216    2.8243   -0.4154 H   0  0  0  0  0  0  0  0  0  0  0  0
    4.4514    2.3206   -2.0355 H   0  0  0  0  0  0  0  0  0  0  0  0
    4.2392    4.0060   -1.5371 H   0  0  0  0  0  0  0  0  0  0  0  0
    3.7626    2.3445    1.6568 H   0  0  0  0  0  0  0  0  0  0  0  0
    4.4749   -0.6479    3.8557 H   0  0  0  0  0  0  0  0  0  0  0  0
    3.6432    2.2892    4.0850 H   0  0  0  0  0  0  0  0  0  0  0  0
    2.6562    0.8977    4.5642 H   0  0  0  0  0  0  0  0  0  0  0  0
    4.1853    1.2219    5.3876 H   0  0  0  0  0  0  0  0  0  0  0  0
    6.3936    0.2003    2.4882 H   0  0  0  0  0  0  0  0  0  0  0  0
    5.8965    1.8660    2.8263 H   0  0  0  0  0  0  0  0  0  0  0  0
    6.4130    0.8180    4.1521 H   0  0  0  0  0  0  0  0  0  0  0  0
    3.5453   -1.8774    2.1676 H   0  0  0  0  0  0  0  0  0  0  0  0
    1.4899   -2.4932   -0.8842 H   0  0  0  0  0  0  0  0  0  0  0  0
    3.9028   -2.5272   -1.5480 H   0  0  0  0  0  0  0  0  0  0  0  0
    3.2736   -4.1355   -1.1731 H   0  0  0  0  0  0  0  0  0  0  0  0
    4.3106   -3.2892   -0.0119 H   0  0  0  0  0  0  0  0  0  0  0  0
    2.4944   -3.7627    1.7000 H   0  0  0  0  0  0  0  0  0  0  0  0
    1.3356   -4.3959    0.5357 H   0  0  0  0  0  0  0  0  0  0  0  0
    0.9060   -3.0026    1.5390 H   0  0  0  0  0  0  0  0  0  0  0  0
   -3.6649   -0.9836   -1.4179 H   0  0  0  0  0  0  0  0  0  0  0  0
   -4.0794   -0.5915    0.2215 H   0  0  0  0  0  0  0  0  0  0  0  0
   -5.5468   -2.3306   -0.6520 H   0  0  0  0  0  0  0  0  0  0  0  0
   -5.2415   -4.0159    1.1520 H   0  0  0  0  0  0  0  0  0  0  0  0
   -4.9872   -2.3845    1.7778 H   0  0  0  0  0  0  0  0  0  0  0  0
   -0.6422   -3.1397   -0.5922 H   0  0  0  0  0  0  0  0  0  0  0  0
   -1.5926   -2.5068   -1.9249 H   0  0  0  0  0  0  0  0  0  0  0  0
   -2.1688   -4.8491   -1.4998 H   0  0  0  0  0  0  0  0  0  0  0  0
   -3.9656   -3.3207   -2.3070 H   0  0  0  0  0  0  0  0  0  0  0  0
   -4.6356   -4.5674   -1.2620 H   0  0  0  0  0  0  0  0  0  0  0  0
   -1.6016   -4.9188    0.9239 H   0  0  0  0  0  0  0  0  0  0  0  0
   -3.2365   -5.5127    0.6482 H   0  0  0  0  0  0  0  0  0  0  0  0
   -3.1897   -3.9241    2.5695 H   0  0  0  0  0  0  0  0  0  0  0  0
   -1.2581   -2.5688    1.8470 H   0  0  0  0  0  0  0  0  0  0  0  0
   -2.6404   -1.5556    2.2012 H   0  0  0  0  0  0  0  0  0  0  0  0
   -1.9451    2.2112   -1.3500 H   0  0  0  0  0  0  0  0  0  0  0  0
   -3.3899    1.3790   -0.7901 H   0  0  0  0  0  0  0  0  0  0  0  0
    0.0881    2.4752    0.2224 H   0  0  0  0  0  0  0  0  0  0  0  0
    0.0273    1.8592    1.8590 H   0  0  0  0  0  0  0  0  0  0  0  0
   -0.3016    4.3184    1.7886 H   0  0  0  0  0  0  0  0  0  0  0  0
   -2.3450    5.2618    0.7121 H   0  0  0  0  0  0  0  0  0  0  0  0
   -1.3240    4.4611   -0.4799 H   0  0  0  0  0  0  0  0  0  0  0  0
   -3.7217    3.8170   -0.7735 H   0  0  0  0  0  0  0  0  0  0  0  0
   -4.8481    2.4598    1.0029 H   0  0  0  0  0  0  0  0  0  0  0  0
   -4.4490    4.0678    1.5937 H   0  0  0  0  0  0  0  0  0  0  0  0
   -2.4178    4.4023    3.1080 H   0  0  0  0  0  0  0  0  0  0  0  0
   -1.4334    3.0165    3.5791 H   0  0  0  0  0  0  0  0  0  0  0  0
   -3.8130    2.3376    3.2669 H   0  0  0  0  0  0  0  0  0  0  0  0
   -3.4369    0.4817    1.7513 H   0  0  0  0  0  0  0  0  0  0  0  0
   -2.0000    0.7107    2.7278 H   0  0  0  0  0  0  0  0  0  0  0  0
   -2.6061    0.8895   -4.5730 H   0  0  0  0  0  0  0  0  0  0  0  0
   -3.9271    0.0834   -3.7129 H   0  0  0  0  0  0  0  0  0  0  0  0
   -2.7103   -0.9200   -4.4990 H   0  0  0  0  0  0  0  0  0  0  0  0
   -0.5863   -0.1249   -4.9426 H   0  0  0  0  0  0  0  0  0  0  0  0
    1.7997   -0.3017   -4.9832 H   0  0  0  0  0  0  0  0  0  0  0  0
    5.1792    0.1195   -3.7576 H   0  0  0  0  0  0  0  0  0  0  0  0
    4.0070   -0.8122   -4.6954 H   0  0  0  0  0  0  0  0  0  0  0  0
    3.8071    0.9686   -4.4648 H   0  0  0  0  0  0  0  0  0  0  0  0
  1  2  1  0
  2  3  1  0
  2  4  1  0
  4  5  2  0
  5  6  1  0
  6  7  1  0
  7  8  1  0
  7  9  1  0
  6 10  2  0
 10 11  1  0
 11 12  1  0
 12 13  1  0
 12 14  1  0
  4 15  1  0
 15 16  1  0
 16 17  1  0
 17 18  1  0
 19 18  1  1
 19 20  1  0
 20 21  1  0
 21 22  1  0
 19 23  1  0
 23 24  1  0
 24 25  1  0
 24 26  1  0
 26 27  1  0
 27 28  1  0
 29 18  1  6
 29 30  1  0
 29 31  1  0
 31 32  1  0
 32 33  1  0
 33 34  1  0
 34 35  1  0
 32 36  1  0
 36 37  1  0
 37 38  1  0
 17 39  2  0
 39 40  1  0
 40 41  1  0
 39 42  1  0
 42 43  2  0
 43 44  1  0
 44 45  1  0
 45 46  1  0
 15 11  2  0
 44 16  2  0
 28 19  1  0
 25 21  1  0
 27 22  1  0
 38 29  1  0
 34 30  1  0
 37 35  1  0
  1 47  1  0
  1 48  1  0
  1 49  1  0
  2 50  1  0
  3 51  1  0
  3 52  1  0
  3 53  1  0
  5 54  1  0
  7 55  1  0
  8 56  1  0
  8 57  1  0
  8 58  1  0
  9 59  1  0
  9 60  1  0
  9 61  1  0
 10 62  1  0
 12 63  1  0
 13 64  1  0
 13 65  1  0
 13 66  1  0
 14 67  1  0
 14 68  1  0
 14 69  1  0
 20 70  1  0
 20 71  1  0
 21 72  1  6
 22 73  1  0
 22 74  1  0
 23 75  1  0
 23 76  1  0
 24 77  1  6
 25 78  1  0
 25 79  1  0
 26 80  1  0
 26 81  1  0
 27 82  1  1
 28 83  1  0
 28 84  1  0
 30 85  1  0
 30 86  1  0
 31 87  1  0
 31 88  1  0
 32 89  1  1
 33 90  1  0
 33 91  1  0
 34 92  1  6
 35 93  1  0
 35 94  1  0
 36 95  1  0
 36 96  1  0
 37 97  1  1
 38 98  1  0
 38 99  1  0
 41100  1  0
 41101  1  0
 41102  1  0
 42103  1  0
 43104  1  0
 46105  1  0
 46106  1  0
 46107  1  0
M  END
