
     RDKit          3D

 18 18  0  0  0  0  0  0  0  0999 V2000
    3.4812   -0.1781   -0.0570 C   0  0  0  0  0  0  0  0  0  0  0  0
    2.0843   -0.4611    0.0365 O   0  0  0  0  0  0  0  0  0  0  0  0
    1.2897    0.6209   -0.1580 C   0  0  0  0  0  0  0  0  0  0  0  0
    1.6729    1.7557   -0.3944 O   0  0  0  0  0  0  0  0  0  0  0  0
   -0.1468    0.2460   -0.0451 C   0  0  0  0  0  0  0  0  0  0  0  0
   -1.1086    1.2514   -0.2200 C   0  0  0  0  0  0  0  0  0  0  0  0
   -2.4709    0.9525   -0.1242 C   0  0  0  0  0  0  0  0  0  0  0  0
   -2.8745   -0.3545    0.1470 C   0  0  0  0  0  0  0  0  0  0  0  0
   -4.8989   -0.8017    0.2900 I   0  0  0  0  0  0  0  0  0  0  0  0
   -1.9276   -1.3638    0.3231 C   0  0  0  0  0  0  0  0  0  0  0  0
   -0.5646   -1.0644    0.2272 C   0  0  0  0  0  0  0  0  0  0  0  0
    3.7785    0.5437    0.7102 H   0  0  0  0  0  0  0  0  0  0  0  0
    4.0275   -1.1098    0.1142 H   0  0  0  0  0  0  0  0  0  0  0  0
    3.7315    0.1915   -1.0563 H   0  0  0  0  0  0  0  0  0  0  0  0
   -0.8002    2.2740   -0.4320 H   0  0  0  0  0  0  0  0  0  0  0  0
   -3.1996    1.7475   -0.2633 H   0  0  0  0  0  0  0  0  0  0  0  0
   -2.2326   -2.3859    0.5349 H   0  0  0  0  0  0  0  0  0  0  0  0
    0.1589   -1.8641    0.3673 H   0  0  0  0  0  0  0  0  0  0  0  0
  1  2  1  0
  2  3  1  0
  3  4  2  0
  3  5  1  0
  5  6  2  0
  6  7  1  0
  7  8  2  0
  8  9  1  0
  8 10  1  0
 10 11  2  0
 11  5  1  0
  1 12  1  0
  1 13  1  0
  1 14  1  0
  6 15  1  0
  7 16  1  0
 10 17  1  0
 11 18  1  0
M  END
