
     RDKit          3D

 15 15  0  0  0  0  0  0  0  0999 V2000
   -2.5514    1.5588    0.4512 F   0  0  0  0  0  0  0  0  0  0  0  0
   -2.2047    0.3544   -0.0825 C   0  0  0  0  0  0  0  0  0  0  0  0
   -2.6618    0.3673   -1.3645 F   0  0  0  0  0  0  0  0  0  0  0  0
   -2.9571   -0.5722    0.5742 F   0  0  0  0  0  0  0  0  0  0  0  0
   -0.7234    0.0792   -0.0054 C   0  0  0  0  0  0  0  0  0  0  0  0
   -0.2457   -1.2334    0.1369 C   0  0  0  0  0  0  0  0  0  0  0  0
    1.1260   -1.4877    0.1866 C   0  0  0  0  0  0  0  0  0  0  0  0
    2.0363   -0.4355    0.0881 C   0  0  0  0  0  0  0  0  0  0  0  0
    1.5710    0.8701   -0.0625 C   0  0  0  0  0  0  0  0  0  0  0  0
    2.9271    2.4380   -0.2158 I   0  0  0  0  0  0  0  0  0  0  0  0
    0.2008    1.1316   -0.1128 C   0  0  0  0  0  0  0  0  0  0  0  0
   -0.9447   -2.0659    0.2115 H   0  0  0  0  0  0  0  0  0  0  0  0
    1.4863   -2.5077    0.3007 H   0  0  0  0  0  0  0  0  0  0  0  0
    3.1016   -0.6490    0.1280 H   0  0  0  0  0  0  0  0  0  0  0  0
   -0.1602    2.1520   -0.2339 H   0  0  0  0  0  0  0  0  0  0  0  0
  1  2  1  0
  2  3  1  0
  2  4  1  0
  2  5  1  0
  5  6  2  0
  6  7  1  0
  7  8  2  0
  8  9  1  0
  9 10  1  0
  9 11  2  0
 11  5  1  0
  6 12  1  0
  7 13  1  0
  8 14  1  0
 11 15  1  0
M  END
