
     RDKit          3D

 12 12  0  0  0  0  0  0  0  0999 V2000
    3.3845    0.1995    0.0272 I   0  0  0  0  0  0  0  0  0  0  0  0
    1.3093    0.0772    0.0105 C   0  0  0  0  0  0  0  0  0  0  0  0
    0.6886   -1.1723   -0.0031 C   0  0  0  0  0  0  0  0  0  0  0  0
   -0.7051   -1.2521   -0.0143 C   0  0  0  0  0  0  0  0  0  0  0  0
   -1.4720   -0.0867   -0.0118 C   0  0  0  0  0  0  0  0  0  0  0  0
   -0.8474    1.1606    0.0018 C   0  0  0  0  0  0  0  0  0  0  0  0
    0.5460    1.2450    0.0130 C   0  0  0  0  0  0  0  0  0  0  0  0
    1.2736   -2.0881   -0.0051 H   0  0  0  0  0  0  0  0  0  0  0  0
   -1.1931   -2.2235   -0.0249 H   0  0  0  0  0  0  0  0  0  0  0  0
   -2.5573   -0.1507   -0.0206 H   0  0  0  0  0  0  0  0  0  0  0  0
   -1.4462    2.0679    0.0037 H   0  0  0  0  0  0  0  0  0  0  0  0
    1.0192    2.2232    0.0236 H   0  0  0  0  0  0  0  0  0  0  0  0
  1  2  1  0
  2  3  2  0
  3  4  1  0
  4  5  2  0
  5  6  1  0
  6  7  2  0
  7  2  1  0
  3  8  1  0
  4  9  1  0
  5 10  1  0
  6 11  1  0
  7 12  1  0
M  END
