122
Standard file
O          0.17436758000000   -1.01286196000000    0.28935986000000
P          0.00000100000000    0.00000100000000    1.31891098000000
O         -1.48980954000000    0.50026983000000    1.55774172000000
O          0.37588611000000   -0.39413090000000    2.82855196000000
C          1.73630733000000   -0.48043236000000    3.07588216000000
C          2.36776113000000   -1.74491956000000    3.03637492000000
C          1.62866153000000   -2.90015996000000    2.50651463000000
C          2.23814105000000   -3.69688583000000    1.54181569000000
C          1.53899110000000   -4.72296353000000    0.91767792000000
C          2.19473077000000   -5.55205456000000   -0.10422604000000
C          1.97427677000000   -6.92624036000000   -0.15147810000000
C          2.59946023000000   -7.70192260000000   -1.11574494000000
C          2.37442153000000   -9.19076523000000   -1.11952707000000
F          2.54676698000000   -9.74101628000000   -2.32644406000000
F          1.14039433000000   -9.52251985000000   -0.71343771000000
F          3.22544591000000   -9.82206722000000   -0.28775581000000
C          3.45901915000000   -7.13540566000000   -2.04588908000000
C          3.67419643000000   -5.76554545000000   -1.99434304000000
C          4.57779344000000   -5.11490013000000   -3.00852320000000
F          5.24630680000000   -4.06951427000000   -2.49699363000000
F          5.49845242000000   -5.95568586000000   -3.49706967000000
F          3.89227324000000   -4.64486975000000   -4.06499115000000
C          3.04920830000000   -4.97600651000000   -1.04155264000000
C          0.20135711000000   -4.93140356000000    1.23770323000000
C         -0.42360279000000   -4.13249908000000    2.18705098000000
C         -1.86827803000000   -4.25247874000000    2.42341335000000
C         -2.51173124000000   -5.48433560000000    2.49395917000000
C         -3.88746009000000   -5.54176930000000    2.66413463000000
C         -4.54935629000000   -6.88927753000000    2.78622013000000
F         -3.98119042000000   -7.80956516000000    1.99412573000000
F         -4.46189403000000   -7.36906787000000    4.04169859000000
F         -5.85075118000000   -6.86311155000000    2.48047820000000
C         -4.65155745000000   -4.38729910000000    2.75684470000000
C         -4.00373220000000   -3.16225113000000    2.68015710000000
C         -4.78768114000000   -1.88305900000000    2.79000189000000
F         -4.29115658000000   -0.91247795000000    1.99585393000000
F         -6.07525188000000   -2.02190367000000    2.46519757000000
F         -4.75800049000000   -1.38284798000000    4.03894433000000
C         -2.62876204000000   -3.09029195000000    2.52912879000000
C          0.30417957000000   -3.14569366000000    2.84486644000000
C          3.69899001000000   -1.81007613000000    3.36753129000000
C          4.44306736000000   -0.65135439000000    3.66166565000000
C          3.82404576000000    0.62511817000000    3.57659957000000
C          4.63207445000000    1.77241536000000    3.72009724000000
C          5.96479583000000    1.66092417000000    4.00705980000000
C          6.56081745000000    0.40042278000000    4.15712137000000
C          5.81697931000000   -0.73076221000000    3.97522120000000
C          2.42545365000000    0.68669484000000    3.30740242000000
C          1.72241521000000    1.98146748000000    3.17995169000000
C          1.03798607000000    2.27455055000000    2.01896765000000
O          0.87480111000000    1.30576407000000    1.03463830000000
C          0.57865864000000    3.58623706000000    1.74076879000000
C          0.03467790000000    3.90010659000000    0.40644414000000
C          0.55961339000000    4.95256743000000   -0.33492103000000
C          0.09693572000000    5.21350447000000   -1.62203526000000
C          0.64160137000000    6.34644443000000   -2.38508287000000
C          1.99734687000000    6.65987899000000   -2.32696534000000
C          2.49711467000000    7.74275070000000   -3.03418873000000
C          3.97241112000000    8.03517497000000   -2.95678170000000
F          4.45028354000000    7.88129902000000   -1.71060000000000
F          4.68773434000000    7.20532378000000   -3.73668458000000
F          4.28135035000000    9.27898294000000   -3.33651624000000
C          1.66991663000000    8.53175446000000   -3.81953674000000
C          0.32134105000000    8.21107024000000   -3.87988410000000
C        -0.61540162000000    9.06778513000000   -4.69048858000000
F         -1.60602597000000    8.35387025000000   -5.24467116000000
F         0.00000100000000    9.71585637000000   -5.68503671000000
F        -1.20850588000000    10.00734677000000   -3.93027129000000
C         -0.19362013000000    7.13659420000000   -3.17163325000000
C         -0.87260917000000    4.38755139000000   -2.18611228000000
C         -1.39975275000000    3.32896116000000   -1.45631648000000
C         -2.38639016000000    2.39784901000000   -2.02198213000000
C         -3.43332488000000    2.83238156000000   -2.82935345000000
C         -4.36956246000000    1.92525698000000   -3.30381657000000
C         -5.50781905000000    2.42918924000000   -4.15208015000000
F         -6.51309919000000    2.91098170000000   -3.39783080000000
F         -5.13308689000000    3.43126096000000   -4.96076382000000
F         -6.03741935000000    1.47983635000000   -4.93066143000000
C         -4.30430185000000    0.57987422000000   -2.96984963000000
C         -3.25265018000000    0.15143385000000   -2.17258627000000
C         -3.13141354000000   -1.29482766000000   -1.77177850000000
F         -2.88105968000000   -1.42082933000000   -0.44790354000000
F         -4.24477939000000   -1.99953474000000   -2.00318949000000
F         -2.13744110000000   -1.92693137000000   -2.40479965000000
C         -2.29046791000000    1.04011186000000   -1.71884347000000
C         -0.96796611000000    3.12003910000000   -0.15025707000000
C          0.73389819000000    4.55776037000000    2.69676063000000
C          1.27591828000000    4.26221877000000    3.96271331000000
C          1.77823395000000    2.95921090000000    4.21464706000000
C          2.27932795000000    2.66444421000000    5.49977191000000
C          2.31494435000000    3.62456248000000    6.47314237000000
C          1.85688536000000    4.92413700000000    6.21062317000000
C          1.34324917000000    5.23427442000000    4.98285368000000
H         -2.14490387000000   -0.12868730000000    1.25040383000000
H          3.26445674000000   -3.50464337000000    1.26868721000000
H          1.32389592000000   -7.39528526000000    0.57135836000000
H          3.94650980000000   -7.74478908000000   -2.79096656000000
H          3.21161185000000   -3.90897980000000   -1.03769586000000
H         -0.37051573000000   -5.67015301000000    0.69719593000000
H         -1.94302710000000   -6.39944185000000    2.42646180000000
H         -5.72278569000000   -4.44125209000000    2.87351841000000
H         -2.14010158000000   -2.13034302000000    2.46364000000000
H         -0.16512247000000   -2.57268633000000    3.62863075000000
H          4.20103033000000   -2.76625981000000    3.38314890000000
H          4.19150899000000    2.74882321000000    3.59475549000000
H          6.56803857000000    2.54956530000000    4.11594317000000
H          7.61104492000000    0.33229901000000    4.39691099000000
H          6.27037747000000   -1.70771382000000    4.05634590000000
H          1.32632138000000    5.57680970000000    0.09872824000000
H          2.66921314000000    6.05211508000000   -1.74011367000000
H         2.06389597000000    9.37215029000000   -4.36941548000000
H         -1.25061965000000    6.92361205000000   -3.22178021000000
H         -1.17816662000000    4.54135314000000   -3.20990435000000
H         -3.53036403000000    3.87823489000000   -3.07853623000000
H         -5.05032614000000   -0.11383958000000   -3.32509569000000
H         -1.45533437000000    0.67073084000000   -1.14130948000000
H         -1.43793325000000    2.35868345000000    0.44564119000000
H          0.40022365000000    5.56468042000000    2.49313866000000
H          2.62284167000000    1.66355591000000    5.71166831000000
H          2.69435657000000    3.38417788000000    7.45475826000000
H          1.90243150000000    5.67140740000000    6.98829210000000
H          0.96924500000000    6.22615353000000    4.77581131000000
