58
Standard file
O          2.33358754000000   -0.92166015000000   -1.85811188000000
P          0.92956118000000   -0.63713841000000   -1.60667357000000
O         -0.05072507000000   -0.90768330000000   -2.83060919000000
O          0.18720089000000   -1.49932658000000   -0.46791827000000
C          0.55301253000000   -1.13595395000000    0.82223137000000
C          1.50485280000000   -1.91877259000000    1.51082939000000
C          2.10785459000000   -3.08979696000000    0.85675723000000
C          1.31882708000000   -4.05142182000000    0.23336571000000
C          1.90578935000000   -5.13905940000000   -0.38618175000000
C          3.28336627000000   -5.27769683000000   -0.39425893000000
C          4.07423351000000   -4.32566097000000    0.22658610000000
C          3.49140189000000   -3.23975156000000    0.85204543000000
C          1.86789720000000   -1.53454554000000    2.77877622000000
C          1.34563873000000   -0.37211230000000    3.37740697000000
C          0.41328646000000    0.42573625000000    2.66273149000000
C         -0.02728732000000    1.63450824000000    3.24185827000000
C          0.39460381000000    2.00793807000000    4.48763285000000
C          1.27955966000000    1.19675675000000    5.21357025000000
C          1.75035239000000    0.03707603000000    4.66618110000000
C          0.00000100000000    0.00000100000000    1.37042358000000
C         -0.97618810000000    0.76162456000000    0.56363136000000
C         -0.60655721000000    1.18129893000000   -0.69473042000000
O          0.66403134000000    0.87244387000000   -1.16587981000000
C         -1.48310045000000    1.90161384000000   -1.53588887000000
C         -1.06233984000000    2.28998781000000   -2.89114315000000
C          0.15888503000000    2.91848472000000   -3.11589694000000
C          0.53509536000000    3.27075713000000   -4.39905858000000
C         -0.29821207000000    2.99835521000000   -5.47099012000000
C         -1.51530969000000    2.37391954000000   -5.25467902000000
C         -1.89732832000000    2.02401641000000   -3.97310590000000
C         -2.73973835000000    2.19767937000000   -1.06686044000000
C         -3.17619043000000    1.76768421000000    0.20041758000000
C         -2.29642169000000    1.01927291000000    1.02608900000000
C         -2.78296289000000    0.51700548000000    2.25151516000000
C         -4.06032812000000    0.78427102000000    2.65952700000000
C         -4.91472695000000    1.56332513000000    1.86504300000000
C         -4.48329568000000    2.03813706000000    0.65903978000000
H          0.42556674000000   -1.36054632000000   -3.52450344000000
H          0.24407681000000   -3.94871653000000    0.24511402000000
H          1.28537989000000   -5.88194044000000   -0.86675026000000
H          3.73982169000000   -6.12455430000000   -0.88557897000000
H          5.14949639000000   -4.42730046000000    0.21827228000000
H          4.10794100000000   -2.48585202000000    1.31866957000000
H          2.58201287000000   -2.12927058000000    3.32969367000000
H         -0.69931541000000    2.26911610000000    2.68470269000000
H          0.04962947000000    2.93572782000000    4.91936776000000
H          1.59436187000000    1.50336535000000    6.20006366000000
H          2.44921974000000   -0.58405668000000    5.20753720000000
H          0.80747694000000    3.13887086000000   -2.28188688000000
H          1.48383836000000    3.76003940000000   -4.56336172000000
H          0.00000100000000    3.27148668000000   -6.47256570000000
H         -2.16785283000000    2.15709338000000   -6.08805586000000
H         -2.83909176000000    1.52206347000000   -3.80525840000000
H         -3.41797845000000    2.76534622000000   -1.68738426000000
H         -2.13536436000000   -0.09168939000000    2.86358611000000
H         -4.42054880000000    0.39172663000000    3.59883132000000
H         -5.91714443000000    1.77203743000000    2.20833132000000
H         -5.13945023000000    2.62163881000000    0.02943614000000
