74
Standard file
O          2.19766810000000    1.40123585000000    1.13737747000000
P          0.78997074000000    1.25408832000000    0.82119340000000
O         -0.10502631000000    2.45934291000000    1.30437135000000
O          0.53787353000000    1.06457312000000   -0.76110402000000
C         -0.69242925000000    0.58529339000000   -1.18014068000000
C         -1.55721844000000    1.48393345000000   -1.84045675000000
C         -1.12282250000000    2.88556512000000   -2.04051796000000
C         -1.52699453000000    3.87909716000000   -1.15084951000000
O         -2.29869049000000    3.44210008000000   -0.09588798000000
C         -2.81731624000000    4.40927176000000    0.79141047000000
C         -1.12951130000000    5.19446971000000   -1.34677968000000
C         -0.31421129000000    5.49771796000000   -2.42198903000000
C          0.11367349000000    4.52226106000000   -3.30255391000000
C         -0.28957275000000    3.20374376000000   -3.11677018000000
O          0.04693620000000    2.16194605000000   -3.91961802000000
C          0.96364269000000    2.38686523000000   -4.96264131000000
C         -2.77297164000000    1.04070002000000   -2.28522953000000
C         -3.19472238000000   -0.28304186000000   -2.05099599000000
C         -2.33311032000000   -1.17848473000000   -1.36491653000000
C         -2.81023117000000   -2.47140835000000   -1.06027081000000
C         -4.05424411000000   -2.87211922000000   -1.46201723000000
C         -4.88535084000000   -2.00299861000000   -2.18417905000000
C         -4.46649237000000   -0.73297137000000   -2.46377143000000
C         -1.04170688000000   -0.73104442000000   -0.96779149000000
C         -0.08715329000000   -1.62097050000000   -0.27815615000000
C          0.40411754000000   -1.22245512000000    0.94324360000000
O          0.00000100000000    0.00000100000000    1.46065233000000
C          1.33268634000000   -1.99451587000000    1.66963104000000
C          1.86992392000000   -1.41716902000000    2.91601451000000
C          3.18056096000000   -0.93258031000000    2.92473534000000
O          3.90913972000000   -1.16739823000000    1.80285782000000
C          5.01557040000000   -0.33151101000000    1.55168374000000
C          3.65272641000000   -0.26285726000000    4.04919409000000
C          2.82533390000000   -0.09744676000000    5.14233422000000
C          1.53022205000000   -0.58343331000000    5.14971922000000
C          1.04169168000000   -1.23861392000000    4.02580374000000
O         -0.21639751000000   -1.75453233000000    3.90738391000000
C         -1.13725938000000   -1.50361678000000    4.93761072000000
C          1.74124601000000   -3.19391493000000    1.15190111000000
C          1.28248439000000   -3.64058473000000   -0.10404787000000
C          0.37493004000000   -2.84017619000000   -0.84750202000000
C          0.01078373000000   -3.25764358000000   -2.14497876000000
C          0.47796312000000   -4.43556291000000   -2.65911863000000
C          1.33502905000000   -5.25097243000000   -1.90588824000000
C          1.73443796000000   -4.85596436000000   -0.66021110000000
H         -0.98908203000000    2.51801018000000    0.91171515000000
H         -3.43766952000000    5.13917429000000    0.26417116000000
H         -2.01860401000000    4.92510055000000    1.33197023000000
H         -3.43442818000000    3.85731465000000    1.49862282000000
H         -1.43229535000000    5.97770601000000   -0.67208869000000
H          0.00000100000000    6.51946614000000   -2.57238253000000
H          0.75668105000000    4.79553672000000   -4.12302313000000
H          0.56220217000000    3.08009800000000   -5.70950558000000
H          1.12414789000000    1.41439149000000   -5.42510071000000
H          1.91640311000000    2.76843948000000   -4.58368410000000
H         -3.43241530000000    1.71936614000000   -2.80593892000000
H         -2.18174991000000   -3.14162002000000   -0.49461906000000
H         -4.40632857000000   -3.86425412000000   -1.22101906000000
H         -5.86025451000000   -2.34069514000000   -2.50374375000000
H         -5.10629798000000   -0.04676416000000   -2.99991368000000
H          5.83991032000000   -0.52678233000000    2.24642334000000
H          5.33750516000000   -0.57057365000000    0.53932995000000
H          4.71957815000000    0.71906285000000    1.60135067000000
H          4.65216359000000    0.13907495000000    4.07208072000000
H          3.19567097000000    0.42561862000000    6.01182885000000
H          0.91275173000000   -0.43234973000000    6.02029544000000
H         -0.83120507000000   -1.97576231000000    5.87759844000000
H         -2.07690379000000   -1.94342466000000    4.60597060000000
H         -1.27710989000000   -0.43012676000000    5.09907508000000
H          2.45315480000000   -3.79579990000000    1.69600793000000
H         -0.63783756000000   -2.62906799000000   -2.73601719000000
H          0.19118657000000   -4.74274500000000   -3.65423670000000
H          1.68638641000000   -6.18306187000000   -2.32378235000000
H          2.41374652000000   -5.46465559000000   -0.08112333000000
