184
Standard file
O         -0.70094653000000    1.95361936000000   -0.34784793000000
P         -0.51667002000000    0.52742638000000   -0.17378604000000
O         -1.82508878000000   -0.34350952000000   -0.35731381000000
O          0.58896097000000   -0.04188954000000   -1.19746166000000
C          1.24294691000000   -1.23548507000000   -0.92767073000000
C          1.02423666000000   -2.32399398000000   -1.75854390000000
Si         0.03727243000000   -2.14595601000000   -3.36646581000000
C         -0.63024419000000   -3.88491388000000   -3.72955933000000
C         -1.30015325000000   -4.62334173000000   -2.76105843000000
C         -1.76881654000000   -5.90028023000000   -3.01406318000000
C         -1.58416535000000   -6.49901384000000   -4.25447772000000
C         -2.06275163000000   -7.90546771000000   -4.57829474000000
C         -2.78011172000000   -8.57274594000000   -3.40159856000000
C         -3.03968006000000   -7.84369929000000   -5.76073335000000
C         -0.84978964000000   -8.76995610000000   -4.95114747000000
C         -0.91819149000000   -5.75811863000000   -5.22805640000000
C         -0.45467136000000   -4.48317290000000   -4.97189383000000
C         -1.36186441000000   -0.88267154000000   -3.44647425000000
C         -2.70313298000000   -1.25002467000000   -3.44059688000000
C         -3.69908896000000   -0.31607741000000   -3.64563695000000
C         -3.40058751000000    1.02535532000000   -3.87087944000000
C         -4.52334596000000    2.01076186000000   -4.15350544000000
C         -5.46926410000000    2.03890860000000   -2.94757746000000
C         -4.01267414000000    3.43468919000000   -4.38844400000000
C         -5.28397287000000    1.55947967000000   -5.40872617000000
C         -2.06231626000000    1.39700111000000   -3.83964842000000
C         -1.06636408000000    0.46233954000000   -3.63552739000000
C          1.29437562000000   -1.65076066000000   -4.69802643000000
C          2.66797852000000   -1.71758567000000   -4.49060504000000
C          3.56081116000000   -1.33791219000000   -5.47306184000000
C          3.12508384000000   -0.87434660000000   -6.71213968000000
C          4.14570822000000   -0.46172652000000   -7.76097944000000
C          3.49581690000000    0.02591428000000   -9.05866796000000
C          5.00538051000000    0.67939228000000   -7.19895796000000
C          5.03552614000000   -1.66741592000000   -8.09492725000000
C          1.75275235000000   -0.81003434000000   -6.92219186000000
C          0.86053584000000   -1.18863445000000   -5.93542625000000
C          1.68064174000000   -3.50598921000000   -1.44432430000000
C          2.48248873000000   -3.63518105000000   -0.31845422000000
C          2.70360986000000   -2.52649943000000    0.49562026000000
C          3.46783457000000   -2.65386112000000    1.78589865000000
C          4.39837297000000   -3.86058883000000    1.79184740000000
C          3.61235930000000   -5.10389915000000    1.39718131000000
C          3.13547356000000   -4.96439844000000   -0.04361304000000
C          2.11855776000000   -1.30203671000000    0.15128185000000
C          2.35678213000000   -0.07022655000000    0.93152745000000
C          1.26222869000000    0.52915273000000    1.54609572000000
O          0.00000100000000    0.00000100000000    1.26809246000000
C          1.37523822000000    1.63902880000000    2.36057363000000
Si        -0.13207703000000    2.26003814000000    3.32286326000000
C         -1.85831192000000    2.00554796000000    2.60265447000000
C         -2.48929110000000    0.77208707000000    2.73283733000000
C         -3.78654794000000    0.58398879000000    2.30658265000000
C         -4.51827100000000    1.62050784000000    1.73238931000000
C         -5.95984286000000    1.37066109000000    1.31988792000000
C         -5.99039302000000    0.20674721000000    0.31830855000000
C         -6.60991813000000    2.59606355000000    0.67285234000000
C         -6.78021801000000    1.00702067000000    2.56657397000000
C         -3.88065968000000    2.84457247000000    1.58102262000000
C         -2.57877655000000    3.03275527000000    2.01059643000000
C         -0.12019713000000    1.26437467000000    4.94375101000000
C          0.92484814000000    0.42344211000000    5.30325697000000
C          0.88983830000000   -0.32152215000000    6.46981993000000
C         -0.19700870000000   -0.25587994000000    7.33236667000000
C         -0.29468105000000   -1.07173489000000    8.61201485000000
C         -1.50883042000000   -2.00625173000000    8.51011806000000
C          0.94862901000000   -1.92927724000000    8.86370530000000
C         -0.46916031000000   -0.12274498000000    9.80570578000000
C         -1.24251392000000    0.59483162000000    6.97850801000000
C         -1.20447452000000    1.33461414000000    5.81438034000000
C          0.19642940000000    4.09138397000000    3.67324417000000
C          0.46126374000000    4.97808560000000    2.63533441000000
C          0.71733325000000    6.31640928000000    2.87654960000000
C          0.72436695000000    6.82531025000000    4.17010651000000
C          1.01380577000000    8.28406359000000    4.48881397000000
C          2.26976779000000    8.36052100000000    5.36881322000000
C          1.25766504000000    9.12728695000000    3.23436459000000
C         -0.18346233000000    8.88282472000000    5.24034179000000
C          0.45960592000000    5.93611218000000    5.20913154000000
C          0.19961548000000    4.60216284000000    4.96611485000000
C          2.64382521000000    2.18677523000000    2.52314057000000
C          3.73703899000000    1.67733410000000    1.84542692000000
C          3.60433074000000    0.53966473000000    1.04951327000000
C          4.81090975000000    0.11237498000000    0.26861994000000
C          6.09210120000000    0.06912019000000    1.12154207000000
C          6.08418145000000    1.10300461000000    2.25615158000000
C          5.11593773000000    2.25205280000000    1.96090060000000
H         -1.75935651000000   -1.23799022000000   -0.02362668000000
H         -1.45190288000000   -4.19297495000000   -1.77983401000000
H         -2.27934594000000   -6.42464905000000   -2.22180590000000
H         -2.11897590000000   -8.66931326000000   -2.54335776000000
H         -3.66292656000000   -8.00817534000000   -3.11056336000000
H         -3.10073977000000   -9.57139836000000   -3.69185916000000
H         -3.40271563000000   -8.84120361000000   -5.99980442000000
H         -3.89257465000000   -7.21598629000000   -5.51091956000000
H         -2.56373046000000   -7.43350382000000   -6.64692051000000
H         -0.14357339000000   -8.80360979000000   -4.12389467000000
H         -0.33449645000000   -8.37425705000000   -5.82188717000000
H         -1.16775643000000   -9.78612034000000   -5.17535404000000
H         -0.75030863000000   -6.18102935000000   -6.20776523000000
H          0.06442861000000   -3.93992984000000   -5.74832626000000
H         -2.97058855000000   -2.28759341000000   -3.29153334000000
H         -4.72709119000000   -0.64933381000000   -3.64175533000000
H         -6.24429803000000    2.78982557000000   -3.09014929000000
H         -5.95181527000000    1.07691936000000   -2.79946956000000
H         -4.90191091000000    2.28258479000000   -2.05204675000000
H         -3.34693668000000    3.47564818000000   -5.24750116000000
H         -4.85592433000000    4.09470357000000   -4.58497457000000
H         -3.48851657000000    3.80694590000000   -3.51173886000000
H         -5.71095502000000    0.56878953000000   -5.27887033000000
H         -4.61301471000000    1.53111663000000   -6.26495655000000
H         -6.09315703000000    2.25379251000000   -5.62662994000000
H         -1.77217223000000    2.42426873000000   -3.98332912000000
H         -0.03592509000000    0.78431596000000   -3.63810525000000
H          3.04332378000000   -2.06772423000000   -3.53896077000000
H          4.61850356000000   -1.40423819000000   -5.26252871000000
H          2.87242413000000    0.89880917000000   -8.87957685000000
H          4.27096107000000    0.30678170000000   -9.76910490000000
H          2.89217767000000   -0.75659086000000   -9.51270810000000
H          5.73187259000000    1.00276500000000   -7.94174005000000
H          4.37698926000000    1.52820519000000   -6.93735064000000
H          5.54428796000000    0.36822039000000   -6.30837045000000
H          5.57165673000000   -2.01908345000000   -7.21783777000000
H          4.42942987000000   -2.48730090000000   -8.47498795000000
H          5.76546159000000   -1.39618885000000   -8.85495589000000
H          1.35639489000000   -0.45888983000000   -7.86147774000000
H         -0.20106338000000   -1.11671023000000   -6.12815481000000
H          1.53725606000000   -4.36267003000000   -2.08742410000000
H          4.02243936000000   -1.74139087000000    1.99586845000000
H          2.73212311000000   -2.76602980000000    2.59104898000000
H          5.21276129000000   -3.70442203000000    1.08049414000000
H          4.83620235000000   -3.98292587000000    2.78448541000000
H          2.75314857000000   -5.21318488000000    2.06240475000000
H          4.23034436000000   -5.99845901000000    1.49618351000000
H          2.43932153000000   -5.76812115000000   -0.29370263000000
H          3.99463122000000   -5.06363221000000   -0.71616386000000
H         -1.95744166000000   -0.04944373000000    3.19289977000000
H         -4.23887699000000   -0.38877854000000    2.43663705000000
H         -6.97974315000000    0.11675282000000   -0.12616101000000
H         -5.75178206000000   -0.73520980000000    0.80481447000000
H         -5.26159328000000    0.37238452000000   -0.47127759000000
H         -6.07094808000000    2.89966514000000   -0.21949942000000
H         -6.64424126000000    3.43085703000000    1.36932811000000
H         -7.63213530000000    2.35732150000000    0.38479726000000
H         -7.81323094000000    0.80536637000000    2.28954450000000
H         -6.38022676000000    0.12628822000000    3.06148619000000
H         -6.76763161000000    1.83063784000000    3.27763802000000
H         -4.39455348000000    3.67918589000000    1.13135710000000
H         -2.11878623000000    4.00224599000000    1.88977594000000
H          1.78409747000000    0.34161086000000    4.65168771000000
H          1.72932430000000   -0.96115296000000    6.69250455000000
H         -1.59601233000000   -2.60980365000000    9.41146110000000
H         -1.39846678000000   -2.67268421000000    7.65692470000000
H         -2.43015118000000   -1.44409669000000    8.38491041000000
H          1.83765328000000   -1.30980967000000    8.95718504000000
H          1.09776029000000   -2.64852840000000    8.06162443000000
H          0.82519498000000   -2.48335806000000    9.79232111000000
H         -0.52300019000000   -0.69107198000000    10.73215879000000
H          0.37520645000000    0.56059851000000    9.86797926000000
H         -1.37753080000000    0.46611051000000    9.71530634000000
H         -2.10906208000000    0.68161746000000    7.61783373000000
H         -2.03724237000000    1.97766957000000    5.56581565000000
H          0.47050393000000    4.60960237000000    1.61896202000000
H          0.91489319000000    6.95876489000000    2.03319639000000
H          2.13148342000000    7.82238517000000    6.30252460000000
H          2.50187433000000    9.39751983000000    5.60330667000000
H          3.12028103000000    7.92533635000000    4.84787706000000
H          0.38714080000000    9.11814008000000    2.58268825000000
H          2.12111127000000    8.76560270000000    2.68090338000000
H          1.45169166000000    10.15880042000000    3.52254465000000
H         -1.08249795000000    8.81076264000000    4.63188215000000
H          0.00000100000000    9.93199374000000    5.46349876000000
H         -0.36434183000000    8.36296508000000    6.17689606000000
H          0.45800018000000    6.28442641000000    6.23186809000000
H          0.00349218000000    3.93785285000000    5.79562596000000
H          2.76180454000000    3.04983199000000    3.16222740000000
H          4.94806181000000    0.85603824000000   -0.52344220000000
H          4.64574907000000   -0.84854160000000   -0.21867130000000
H          6.21579824000000   -0.92822663000000    1.54732654000000
H          6.94567931000000    0.24465460000000    0.46440289000000
H          7.09124657000000    1.49152972000000    2.41395504000000
H          5.76452656000000    0.62777059000000    3.18633698000000
H          5.40049373000000    2.73679343000000    1.02292744000000
H          5.15451899000000    2.99856551000000    2.75496125000000
