104
Standard file
O         -0.88939784000000    0.57851188000000    2.21712237000000
P          0.00000100000000    0.00000100000000    1.23406750000000
O          1.28515635000000   -0.73950758000000    1.78517630000000
O          0.73594575000000    0.96549704000000    0.15988430000000
C         -0.13741094000000    1.62467238000000   -0.69701558000000
C         -0.32855029000000    2.99968713000000   -0.48697613000000
Si         0.83687202000000    3.79732179000000    0.77930424000000
C          0.71795806000000    3.01616323000000    2.49218973000000
C         -0.39380362000000    3.22015021000000    3.30322366000000
C         -0.49980465000000    2.59800827000000    4.53247896000000
C          0.50039659000000    1.74624728000000    4.96673678000000
C          1.61013974000000    1.52758842000000    4.17013259000000
C          1.71719158000000    2.16196099000000    2.94708285000000
C          2.61129116000000    3.60785244000000    0.11570844000000
C          3.66528690000000    4.17548884000000    0.82926421000000
C          4.97197521000000    4.06059026000000    0.39237420000000
C          5.25261958000000    3.37317066000000   -0.77707517000000
C          4.21826607000000    2.80884168000000   -1.50366095000000
C          2.91266982000000    2.92896114000000   -1.06013117000000
C          0.51781113000000    5.66791329000000    0.81462670000000
C          0.26943533000000    6.35820124000000    1.99545725000000
C          0.08272334000000    7.72948797000000    1.99769842000000
C          0.14764778000000    8.44051483000000    0.81187825000000
C          0.41238959000000    7.77271927000000   -0.37235379000000
C          0.59911186000000    6.40285059000000   -0.36583355000000
C         -1.23448580000000    3.64728575000000   -1.28439504000000
C         -1.96945344000000    2.95890187000000   -2.27322419000000
C         -1.71116872000000    1.58232908000000   -2.51120493000000
C         -2.47759463000000    0.90705293000000   -3.48324552000000
C         -3.43053898000000    1.56919027000000   -4.20693750000000
C         -3.66320231000000    2.93611160000000   -3.99659007000000
C         -2.95130037000000    3.61312720000000   -3.04667628000000
C         -0.72853897000000    0.92260552000000   -1.71964863000000
C         -0.32885873000000   -0.47813630000000   -1.96165429000000
C         -0.40079697000000   -1.40036070000000   -0.94334930000000
O         -0.82863436000000   -1.02021813000000    0.31382999000000
C         -0.14061402000000   -2.77107956000000   -1.12374635000000
Si        -0.57263359000000   -3.93233041000000    0.31939402000000
C          0.24638273000000   -5.59627415000000   -0.08738050000000
C         -0.46658458000000   -6.78700025000000   -0.00337857000000
C          0.13570711000000   -8.00387545000000   -0.26886504000000
C          1.47299543000000   -8.05281307000000   -0.62385118000000
C          2.19991094000000   -6.87772180000000   -0.71545482000000
C          1.58944214000000   -5.66545544000000   -0.45007037000000
C         -0.00540906000000   -3.36705146000000    2.03550654000000
C          1.23618881000000   -3.72754596000000    2.55091265000000
C          1.65615042000000   -3.26434206000000    3.78464397000000
C          0.83957801000000   -2.42714751000000    4.52500894000000
C         -0.40646656000000   -2.07478907000000    4.03612370000000
C         -0.82587481000000   -2.54730698000000    2.80724199000000
C         -2.46024727000000   -4.09504479000000    0.33413576000000
C         -3.09625593000000   -4.72359042000000    1.40217598000000
C         -4.47332965000000   -4.84102512000000    1.44528813000000
C         -5.24444022000000   -4.32444008000000    0.41722744000000
C         -4.62934497000000   -3.69342916000000   -0.65050329000000
C         -3.25081605000000   -3.58335699000000   -0.68977604000000
C          0.26224217000000   -3.19009607000000   -2.36480749000000
C          0.46229333000000   -2.27885520000000   -3.42278424000000
C          0.16996041000000   -0.90268965000000   -3.22707461000000
C          0.42464467000000   -0.00204392000000   -4.28238918000000
C          0.90451631000000   -0.44735642000000   -5.48315864000000
C          1.15334684000000   -1.81204359000000   -5.69024679000000
C          0.94273889000000   -2.70609359000000   -4.67861560000000
H          2.02714333000000   -0.73149398000000    1.18010261000000
H         -1.19630869000000    3.85565425000000    2.95620493000000
H         -1.37395496000000    2.76305312000000    5.14592299000000
H          0.41073087000000    1.24590150000000    5.92033766000000
H          2.38876106000000    0.85334015000000    4.49781658000000
H          2.59029685000000    1.99238679000000    2.33128435000000
H          3.45075950000000    4.71430419000000    1.74136740000000
H          5.77422954000000    4.50683823000000    0.96256502000000
H          6.27259190000000    3.28032216000000   -1.12158768000000
H          4.42923004000000    2.27503995000000   -2.41990063000000
H          2.11458771000000    2.48571056000000   -1.63851987000000
H          0.22805032000000    5.81374085000000    2.92720999000000
H         -0.11150026000000    8.24608704000000    2.92695035000000
H          0.00000100000000    9.51086750000000    0.81057085000000
H          0.47648864000000    8.32327855000000   -1.30037583000000
H          0.82111509000000    5.88986922000000   -1.29119173000000
H         -1.40755581000000    4.70509761000000   -1.15116699000000
H         -2.31284167000000   -0.14805222000000   -3.64097710000000
H         -4.01460534000000    1.03848656000000   -4.94418247000000
H         -4.41467343000000    3.44423503000000   -4.58256909000000
H         -3.13357716000000    4.66229990000000   -2.86389597000000
H         -1.51127802000000   -6.75579195000000    0.26933727000000
H         -0.43784885000000   -8.91711836000000   -0.19916700000000
H          1.94668862000000   -9.00162895000000   -0.83038751000000
H          3.24382329000000   -6.90835743000000   -0.99460628000000
H          2.16313725000000   -4.75208064000000   -0.53241035000000
H          1.88125301000000   -4.37976340000000    1.97836833000000
H          2.62639865000000   -3.55182666000000    4.16565499000000
H          1.17342658000000   -2.05237375000000    5.48179608000000
H         -1.04938713000000   -1.41993283000000    4.60350094000000
H         -1.80114173000000   -2.26875677000000    2.43816046000000
H         -2.49969327000000   -5.11873424000000    2.21269186000000
H         -4.94795713000000   -5.33189876000000    2.28298921000000
H         -6.32098001000000   -4.41064655000000    0.45025289000000
H         -5.22630895000000   -3.28468196000000   -1.45342412000000
H         -2.77908889000000   -3.08822719000000   -1.52692337000000
H          0.44328486000000   -4.24016109000000   -2.54258387000000
H          0.24580275000000    1.05129019000000   -4.12850363000000
H          1.09802500000000    0.25452477000000   -6.28078697000000
H          1.52162189000000   -2.14673578000000   -6.64863734000000
H          1.14780462000000   -3.75770008000000   -4.81849531000000
