82
Standard file
O         -2.44412927000000    0.03813808000000    0.58470480000000
P         -1.11845520000000    0.56488289000000    0.30144859000000
O         -0.99195880000000    2.14922975000000    0.36041376000000
O         -0.50252147000000    0.29968608000000   -1.16123812000000
C         -0.06121994000000   -1.00078388000000   -1.36248882000000
C         -0.87589812000000   -1.87647430000000   -2.11002500000000
C         -2.17848277000000   -1.38497755000000   -2.60513146000000
C         -3.35526195000000   -1.80720110000000   -1.97178661000000
C         -3.34739045000000   -2.68986209000000   -0.86135322000000
C         -4.50744432000000   -3.06701949000000   -0.25869983000000
C         -5.74918660000000   -2.59168749000000   -0.72809887000000
C         -5.79947392000000   -1.73899635000000   -1.78637306000000
C         -4.61338710000000   -1.31277160000000   -2.43683950000000
C         -4.64770810000000   -0.42149580000000   -3.50444388000000
C         -3.48242289000000    0.00932192000000   -4.13021081000000
C         -2.21909022000000   -0.47853302000000   -3.67269652000000
C         -1.04561767000000   -0.03324666000000   -4.33467917000000
C         -1.11513304000000    0.84909093000000   -5.36890406000000
C         -2.36174022000000    1.33491756000000   -5.81525567000000
C         -3.51092672000000    0.92341384000000   -5.21457600000000
C         -0.44070874000000   -3.15903095000000   -2.32406752000000
C          0.76760441000000   -3.62485933000000   -1.76751070000000
C          1.56547947000000   -2.74623466000000   -0.98758273000000
C          2.71947662000000   -3.26035160000000   -0.35935319000000
C          3.09132960000000   -4.56419497000000   -0.53624666000000
C          2.32903762000000   -5.41930058000000   -1.34559812000000
C          1.18812165000000   -4.96050118000000   -1.94098814000000
C          1.14385599000000   -1.39638004000000   -0.82724103000000
C          1.93247673000000   -0.40918615000000   -0.06392469000000
C          1.32821939000000    0.25830923000000    0.97727278000000
O          0.00000100000000    0.00000100000000    1.28895111000000
C          2.02045800000000    1.20128862000000    1.76699141000000
C          1.29593049000000    1.89371711000000    2.85272751000000
C          0.96523055000000    3.24823379000000    2.70501574000000
C          1.29332360000000    3.99010065000000    1.54033482000000
C          0.94923582000000    5.30185812000000    1.42394214000000
C          0.25766772000000    5.95882999000000    2.46290301000000
C         -0.08443828000000    5.28063724000000    3.59129661000000
C          0.24694466000000    3.91025084000000    3.74942578000000
C         -0.11732097000000    3.19923069000000    4.88824970000000
C          0.19887053000000    1.85269281000000    5.03654647000000
C          0.92144721000000    1.18265373000000    4.00108136000000
C          1.24897265000000   -0.18543209000000    4.18632402000000
C          0.86621371000000   -0.85231876000000    5.30940694000000
C          0.14239450000000   -0.19331259000000    6.32465440000000
C         -0.17702142000000    1.12232428000000    6.19292926000000
C          3.33839146000000    1.45595216000000    1.48710605000000
C          3.98966980000000    0.83537909000000    0.40237420000000
C          3.27871220000000   -0.09362207000000   -0.40237734000000
C          3.92044499000000   -0.63267427000000   -1.53740316000000
C          5.21547538000000   -0.30641695000000   -1.83094971000000
C          5.93275630000000    0.57497547000000   -1.00870029000000
C          5.32922309000000    1.13902449000000    0.07952956000000
H         -1.86417081000000    2.53182681000000    0.43770865000000
H         -2.39987433000000   -3.04805096000000   -0.48809467000000
H         -4.48637717000000   -3.73130827000000    0.59257480000000
H         -6.65646135000000   -2.90614413000000   -0.23284882000000
H         -6.74506377000000   -1.36097623000000   -2.14919298000000
H         -5.60205857000000   -0.04955384000000   -3.85202478000000
H         -0.08849562000000   -0.40736542000000   -4.00156801000000
H         -0.21355657000000    1.18355630000000   -5.86149361000000
H         -2.39182844000000    2.03255874000000   -6.63969261000000
H         -4.47192496000000    1.28506616000000   -5.55258952000000
H         -1.04779584000000   -3.83753964000000   -2.90568820000000
H          3.30557853000000   -2.61214063000000    0.27396530000000
H          3.97610167000000   -4.94447683000000   -0.04762287000000
H          2.64319501000000   -6.44345894000000   -1.48178930000000
H          0.58027613000000   -5.61598381000000   -2.54763663000000
H          1.81470334000000    3.49220539000000    0.73691113000000
H          1.20216319000000    5.85295635000000    0.53001463000000
H          0.00000100000000    7.00177780000000    2.34921847000000
H         -0.62040365000000    5.77163879000000    4.39126841000000
H         -0.66283434000000    3.70367955000000    5.67405037000000
H          1.80956888000000   -0.69471308000000    3.41646792000000
H          1.11683033000000   -1.89554944000000    5.43492039000000
H         -0.15046486000000   -0.74407383000000    7.20657663000000
H         -0.72522105000000    1.63932951000000    6.96778188000000
H          3.88467310000000    2.16386069000000    2.09360846000000
H          3.37238062000000   -1.30290877000000   -2.18159223000000
H          5.69310929000000   -0.72523253000000   -2.70421213000000
H          6.95786335000000    0.81347253000000   -1.25047243000000
H          5.86411996000000    1.83674807000000    0.70752024000000
