72
Standard file
O         -0.61374023000000   -0.80184048000000    2.46559684000000
P          0.00000100000000    0.00000100000000    1.41592824000000
O          0.68999685000000    1.34476383000000    1.91157112000000
O         -1.02383741000000    0.43381995000000    0.27573538000000
C         -0.49094250000000    1.00693242000000   -0.87514132000000
C         -0.62459815000000    2.40118296000000   -1.05857064000000
C         -1.29018860000000    3.22914867000000   -0.04108208000000
C         -0.68508806000000    4.40853170000000    0.38038293000000
C         -1.28323794000000    5.21221528000000    1.33791502000000
C         -0.60068585000000    6.47676987000000    1.78476466000000
O          0.00676290000000    7.10918998000000    0.68027451000000
C          0.68120310000000    8.28708854000000    1.02838522000000
C         -2.50104725000000    4.82898444000000    1.88372473000000
C         -3.10790944000000    3.65532718000000    1.47135020000000
C         -2.51187340000000    2.85718996000000    0.51272426000000
C         -0.08904634000000    2.96360940000000   -2.19196465000000
C          0.61365789000000    2.19405679000000   -3.13801537000000
C          0.76564363000000    0.79787630000000   -2.92999962000000
C          1.55154671000000    0.05994936000000   -3.84020864000000
C          2.11601502000000    0.66586839000000   -4.92831237000000
C          1.92698143000000    2.03672790000000   -5.15944003000000
C          1.19811701000000    2.78480322000000   -4.27891666000000
C          0.16266294000000    0.20611811000000   -1.78598074000000
C          0.25950120000000   -1.24188803000000   -1.50680498000000
C          0.79079426000000   -1.63415610000000   -0.29939761000000
O          1.21654632000000   -0.65699394000000    0.59479359000000
C          0.86035548000000   -2.98732527000000    0.09244940000000
C          1.31235487000000   -3.30394908000000    1.45625585000000
C          2.53573247000000   -2.85249466000000    1.93874762000000
C          2.89408348000000   -3.10229676000000    3.25057187000000
C          2.02844286000000   -3.77400765000000    4.09613791000000
C          0.80629380000000   -4.23180380000000    3.62364035000000
C         -0.16478808000000   -4.94548445000000    4.53411266000000
O         -1.51631891000000   -4.69227400000000    4.23791156000000
C         -1.90764656000000   -3.35798317000000    4.48064404000000
C          0.46472540000000   -4.01121232000000    2.29873464000000
C          0.42302326000000   -3.94562082000000   -0.78660159000000
C         -0.11923698000000   -3.59932652000000   -2.03998440000000
C         -0.23311580000000   -2.23058874000000   -2.40319836000000
C         -0.87976443000000   -1.90393368000000   -3.61378174000000
C         -1.34060929000000   -2.88433189000000   -4.44815520000000
C         -1.18454457000000   -4.23741252000000   -4.11279276000000
C         -0.59492671000000   -4.58536381000000   -2.93056707000000
H          0.76743371000000    1.32990244000000    2.86361303000000
H          0.26554822000000    4.70617893000000   -0.03362934000000
H         -1.32871250000000    7.15557904000000    2.25773282000000
H          0.16667527000000    6.23315003000000    2.54263043000000
H          1.49531173000000    8.08727518000000    1.73737592000000
H          1.09389467000000    8.69420331000000    0.10787111000000
H          0.00000100000000    9.02110906000000    1.47770661000000
H         -2.97495510000000    5.44886791000000    2.63134630000000
H         -4.05675756000000    3.36350467000000    1.89664560000000
H         -2.99802901000000    1.95199042000000    0.18382387000000
H         -0.19743484000000    4.02530020000000   -2.35840116000000
H          1.71049619000000   -0.99272865000000   -3.66323707000000
H          2.71616340000000    0.08952617000000   -5.61667613000000
H          2.37248163000000    2.49573776000000   -6.02959498000000
H          1.06388348000000    3.84533607000000   -4.43485666000000
H          3.20146074000000   -2.30884789000000    1.28505167000000
H          3.84673111000000   -2.75370165000000    3.62274435000000
H          2.30022463000000   -3.93878756000000    5.12923631000000
H          0.05271754000000   -4.68190454000000    5.58207012000000
H         -0.04720050000000   -6.02976130000000    4.42124073000000
H         -1.73706952000000   -3.08946381000000    5.53092861000000
H         -2.97299149000000   -3.31209223000000    4.26550723000000
H         -1.37673406000000   -2.64704317000000    3.84049765000000
H         -0.49329792000000   -4.35417216000000    1.93698351000000
H          0.47289654000000   -4.98764922000000   -0.50652862000000
H         -1.01380583000000   -0.86514049000000   -3.87375748000000
H         -1.83292605000000   -2.61968966000000   -5.37210180000000
H         -1.54649428000000   -4.99828954000000   -4.78837871000000
H         -0.49063616000000   -5.62378876000000   -2.65138015000000
