66
Standard file
O          0.16220793000000   -1.41987157000000    1.88686957000000
P          0.00000100000000    0.00000100000000    1.62465745000000
O         -0.46018576000000    0.87565616000000    2.87196706000000
O         -1.04946707000000    0.33627175000000    0.47214081000000
C         -1.04390520000000    1.61082400000000   -0.07737339000000
C         -2.10152683000000    2.48655132000000    0.25276934000000
C         -3.15248093000000    2.04554556000000    1.18442826000000
C         -3.86553117000000    0.86681041000000    0.96485154000000
O         -3.59729684000000    0.18965279000000   -0.23896951000000
C         -3.60026126000000   -1.12792185000000   -0.24122361000000
F         -2.89467491000000   -1.56926450000000   -1.27636534000000
F         -3.11219690000000   -1.69536468000000    0.86450986000000
F         -4.83978393000000   -1.65533193000000   -0.39018108000000
C         -4.82808360000000    0.43209642000000    1.85808090000000
C         -5.08931717000000    1.18262120000000    2.99314152000000
C         -4.40433297000000    2.36297339000000    3.22090095000000
C         -3.44620742000000    2.79157046000000    2.32036345000000
C         -2.10344005000000    3.75191735000000   -0.27746673000000
C         -1.06323790000000    4.19740571000000   -1.11539470000000
C          0.00812915000000    3.31888949000000   -1.42625173000000
C          1.08465924000000    3.81252010000000   -2.19348518000000
C          1.07516725000000    5.09453187000000   -2.66924763000000
C         -0.00538196000000    5.94786399000000   -2.40026630000000
C         -1.04765365000000    5.51023886000000   -1.63303955000000
C         -0.01820847000000    1.99211963000000   -0.91387985000000
C          1.05644422000000    1.01791420000000   -1.19378765000000
C          1.70300410000000    0.45080829000000   -0.11947691000000
O          1.31537037000000    0.81321578000000    1.16759268000000
C          2.69749422000000   -0.53561078000000   -0.27324266000000
C          3.25403910000000   -1.15797672000000    0.94155633000000
C          3.91965212000000   -0.40401719000000    1.89810006000000
C          4.39882085000000   -0.99412340000000    3.05431628000000
C          4.20820146000000   -2.34667886000000    3.26612435000000
C          3.53838046000000   -3.11790737000000    2.32838216000000
C          3.06338161000000   -2.52109852000000    1.17569894000000
O          2.36903036000000   -3.20910418000000    0.16908996000000
C          1.94082264000000   -4.43601222000000    0.36544831000000
F          1.21014828000000   -4.63209887000000    1.46635002000000
F          1.19695084000000   -4.80315674000000   -0.67356932000000
F          2.94185424000000   -5.34974586000000    0.44174402000000
C          3.06673180000000   -0.90606521000000   -1.54048730000000
C          2.43829060000000   -0.35360446000000   -2.67425642000000
C          1.39940276000000    0.60153127000000   -2.50956610000000
C          0.71078104000000    1.05729562000000   -3.65346651000000
C          1.06889605000000    0.62907595000000   -4.90162106000000
C          2.12627875000000   -0.27749366000000   -5.06871176000000
C          2.79000621000000   -0.76364567000000   -3.97800364000000
H         -0.40107975000000    0.34669440000000    3.66631090000000
H         -5.37561942000000   -0.47958449000000    1.67643043000000
H         -5.83525690000000    0.84037704000000    3.69340119000000
H         -4.61356190000000    2.94833792000000    4.10319119000000
H         -2.89455742000000    3.70168414000000    2.50069026000000
H         -2.91451769000000    4.42628693000000   -0.04456297000000
H          1.92406746000000    3.16565432000000   -2.39644143000000
H          1.90557203000000    5.45900156000000   -3.25530871000000
H          0.00000100000000    6.95361651000000   -2.79313706000000
H         -1.87551518000000    6.16485397000000   -1.40245997000000
H          4.05742628000000    0.65252587000000    1.72479421000000
H          4.91618892000000   -0.39675462000000    3.78967286000000
H          4.57460838000000   -2.81472047000000    4.16662747000000
H          3.39037231000000   -4.16917566000000    2.51699742000000
H          3.83144461000000   -1.65538196000000   -1.67794765000000
H         -0.11274585000000    1.74384166000000   -3.53182379000000
H          0.53268668000000    0.98458703000000   -5.76878897000000
H          2.39945769000000   -0.59850424000000   -6.06280692000000
H          3.58867716000000   -1.48150359000000   -4.09349643000000
