38
Standard file
O         -2.78361003000000    0.60382473000000   -1.76167766000000
P         -1.46278298000000    0.01035338000000   -1.68508186000000
O         -0.96243185000000   -0.78257406000000   -2.96002125000000
O         -0.32137073000000    1.08662783000000   -1.35784490000000
C          0.92552530000000    0.62245494000000   -1.00222027000000
C          1.97198748000000    0.72953834000000   -1.93397464000000
Br         1.57099164000000    1.46240992000000   -3.62918270000000
C          3.23379745000000    0.31161092000000   -1.62205188000000
C          3.48871299000000   -0.28184009000000   -0.36886527000000
C          2.43438175000000   -0.42103009000000    0.57364834000000
C          2.69693061000000   -1.10030099000000    1.78187436000000
C          3.94974150000000   -1.57218342000000    2.06165577000000
C          5.00051623000000   -1.39292460000000    1.15017198000000
C          4.77254611000000   -0.76786103000000   -0.04319848000000
C          1.14406839000000    0.08484683000000    0.24766041000000
C          0.00000100000000    0.00000100000000    1.17701861000000
C         -1.14557394000000   -0.62049785000000    0.72771212000000
O         -1.20523584000000   -1.11929064000000   -0.55472889000000
C         -2.26885289000000   -0.75628422000000    1.56091075000000
Br        -3.78768476000000   -1.62219993000000    0.85126067000000
C         -2.25047390000000   -0.27890612000000    2.84044670000000
C         -1.11369405000000    0.40205473000000    3.32243863000000
C         -1.09235545000000    0.95084691000000    4.62205823000000
C         -0.00843746000000    1.65469454000000    5.06557903000000
C          1.09488592000000    1.85220873000000    4.22251969000000
C          1.11140927000000    1.32175024000000    2.96205066000000
C          0.02230521000000    0.56343408000000    2.48390497000000
H         -1.67111186000000   -0.87035453000000   -3.59642626000000
H          4.03327573000000    0.40940747000000   -2.34013680000000
H          1.89217455000000   -1.25377444000000    2.48382185000000
H          4.13454941000000   -2.09174574000000    2.98958613000000
H          5.98458506000000   -1.76455628000000    1.39234054000000
H          5.56817133000000   -0.64407133000000   -0.76261791000000
H         -3.11320212000000   -0.39674277000000    3.47770258000000
H         -1.95642107000000    0.81121044000000    5.25426241000000
H          0.00000100000000    2.07415803000000    6.06012559000000
H          1.93458519000000    2.43252102000000    4.57376827000000
H          1.95906159000000    1.48878275000000    2.31563349000000
