33
Standard file
O         -0.00166524000000   -2.02451921000000    2.07575549000000
C          0.00081326000000   -0.81070721000000    2.10084159000000
C         -0.00082380000000   -0.02400752000000    3.35290842000000
C         -0.00195690000000   -0.70159745000000    4.57154689000000
C         -0.00132360000000    0.00326738000000    5.75897806000000
C         -0.00006771000000    1.38961547000000    5.74032014000000
C          0.00073910000000    2.06931733000000    4.53196134000000
C          0.00027794000000    1.36911775000000    3.34077261000000
N          0.00000100000000    0.00000100000000    0.95282854000000
C         -0.00213925000000   -0.57944821000000   -0.18832088000000
C          0.00044964000000    0.17437693000000   -1.41815042000000
C          0.00190777000000    1.55768535000000   -1.33835849000000
C          0.00260565000000    2.35646161000000   -2.47998526000000
C          0.00227464000000    1.77284856000000   -3.71910234000000
C          0.00108216000000    0.36984690000000   -3.85874187000000
C          0.00020020000000   -0.45819280000000   -2.70080303000000
C         -0.00111272000000   -1.85493295000000   -2.89075640000000
C         -0.00133173000000   -2.40084944000000   -4.14611530000000
C         -0.00034575000000   -1.58197199000000   -5.28322896000000
C          0.00080320000000   -0.22384672000000   -5.13907953000000
H         -0.00237533000000   -1.78146199000000    4.56287087000000
H         -0.00187913000000   -0.52431501000000    6.70147000000000
H          0.00000100000000    1.94120313000000    6.66927768000000
H          0.00160249000000    3.14960562000000    4.52250836000000
H          0.00117065000000    1.88315984000000    2.39327642000000
H         -0.00169656000000   -1.67190108000000   -0.24382302000000
H          0.00188770000000    2.00444683000000   -0.35670912000000
H          0.00352591000000    3.43173852000000   -2.38087780000000
H          0.00311453000000    2.37979156000000   -4.61337973000000
H         -0.00182206000000   -2.51543730000000   -2.03849363000000
H         -0.00223167000000   -3.47423890000000   -4.26560673000000
H         -0.00056666000000   -2.03047727000000   -6.26543111000000
H          0.00149175000000    0.42220803000000   -6.00536237000000
