30
Standard file
O         -0.02569489000000    3.93272594000000   -0.14512758000000
C         -0.01050218000000    3.02370878000000   -0.94552451000000
C          0.00041839000000    3.21341326000000   -2.40747877000000
C          0.01892621000000    2.13155020000000   -3.28653296000000
C          0.03058839000000    2.35257053000000   -4.65031005000000
C          0.02410007000000    3.64710342000000   -5.14729216000000
C          0.00516326000000    4.72751305000000   -4.27794664000000
C         -0.00672851000000    4.51366062000000   -2.91405475000000
N          0.00368947000000    1.65776195000000   -0.57438897000000
C         -0.01286237000000    1.37257202000000    0.66534289000000
C          0.00000100000000    0.00000100000000    1.13315796000000
C          0.02152883000000   -1.06250394000000    0.22621494000000
C          0.03130208000000   -2.36608420000000    0.67694870000000
C          0.02419179000000   -2.61654039000000    2.04501911000000
C         -0.00032319000000   -4.03544140000000    2.54243731000000
F          0.60972577000000   -4.18094451000000    3.72788421000000
F         -1.26004848000000   -4.48368612000000    2.71165099000000
F          0.59139617000000   -4.89332156000000    1.69903989000000
C          0.00013355000000   -1.57106734000000    2.96037996000000
C         -0.01024256000000   -0.26801285000000    2.50315098000000
H          0.02415239000000    1.13082553000000   -2.88585291000000
H          0.04521438000000    1.51485048000000   -5.33191891000000
H          0.03406132000000    3.81458601000000   -6.21433756000000
H          0.00000100000000    5.73463751000000   -4.66759433000000
H         -0.02156352000000    5.33970530000000   -2.21884595000000
H         -0.03955487000000    2.15377836000000    1.43541519000000
H          0.02916812000000   -0.83869148000000   -0.82815270000000
H          0.04945755000000   -3.18995765000000   -0.01988695000000
H         -0.00541212000000   -1.78264692000000    4.01865681000000
H         -0.02666606000000    0.54880487000000    3.20903309000000
