16
Standard file
S         -0.00438390000000   -1.95741700000000   -1.00649468000000
C          0.00807707000000   -0.29822594000000   -0.37455996000000
C         -0.00131323000000    0.71585791000000   -1.32403748000000
C         -0.00819038000000    2.04003931000000   -0.93288694000000
C         -0.00017145000000    2.35420119000000    0.41522286000000
C          0.00342503000000    1.33998418000000    1.35564361000000
C          0.00000100000000    0.00000100000000    0.98918503000000
C         -0.01765311000000   -1.06615347000000    2.04297789000000
H          0.40785901000000   -2.56236521000000    0.10419161000000
H         -0.00215128000000    0.45128307000000   -2.37099481000000
H         -0.01499463000000    2.82032804000000   -1.67860476000000
H          0.00000100000000    3.38514301000000    0.73529640000000
H          0.00160592000000    1.58898553000000    2.40738576000000
H         -0.84938700000000   -1.75328160000000    1.88413402000000
H          0.91123134000000   -1.64011431000000    2.03435162000000
H         -0.12601200000000   -0.61912291000000    3.02805189000000
