20
Standard file
C          0.00000695000000   -2.64643599000000   -3.17116017000000
C          0.00000378000000   -1.59671712000000   -2.12291316000000
N         -0.00000352000000   -0.31769972000000   -2.41200846000000
O         -0.00000481000000    0.37436336000000   -1.26003751000000
C          0.00000234000000   -0.48683556000000   -0.22925315000000
C          0.00000100000000    0.00000100000000    1.16297184000000
O         -0.00000017000000    1.32597798000000    1.22041001000000
C         -0.00000180000000    1.90821316000000    2.52605676000000
C         -0.00000049000000    3.41655823000000    2.37078252000000
O          0.00000092000000   -0.73447160000000    2.11991109000000
C          0.00000799000000   -1.76946270000000   -0.71708730000000
H          0.87869982000000   -2.53988758000000   -3.80367499000000
H         -0.87868205000000   -2.53988766000000   -3.80368030000000
H          0.00000589000000   -3.63271581000000   -2.71617381000000
H          0.88660653000000    1.55890998000000    3.06721366000000
H         -0.88661232000000    1.55891124000000    3.06721087000000
H          0.88204624000000    3.73531790000000    1.82236026000000
H          0.00000100000000    3.88474968000000    3.35065714000000
H         -0.88204761000000    3.73531986000000    1.82236202000000
H          0.00001392000000   -2.67907589000000   -0.15556210000000
