14
Standard file
C          0.00000100000000    0.00000100000000    0.78818949000000
C          0.00000130000000   -0.38898761000000   -0.56672916000000
C          0.00000252000000    0.53794296000000   -1.60072372000000
C          0.00000220000000    1.86722589000000   -1.23645280000000
C          0.00000114000000    2.26818065000000    0.10483091000000
C          0.00000078000000    1.35121864000000    1.13056843000000
O          0.00000036000000   -1.73325257000000   -0.64045244000000
N         -0.00000054000000   -2.23704036000000    0.62767029000000
C          0.00000041000000   -1.25360863000000    1.46926772000000
H          0.00000340000000    0.22197483000000   -2.63082272000000
H          0.00000327000000    2.62442141000000   -2.00593768000000
H          0.00000100000000    3.32363304000000    0.33200927000000
H          0.00000051000000    1.65788191000000    2.16498143000000
H          0.00000003000000   -1.44619024000000    2.52325348000000
