20
Standard file
C          0.92517186000000   -1.84739065000000   -3.52929169000000
C          0.47637219000000   -1.13973522000000   -2.30712891000000
C          0.81044183000000   -1.26746711000000   -0.98858184000000
C          0.01536123000000   -0.28389166000000   -0.34357338000000
C          0.00000100000000    0.00000100000000    1.10814697000000
O         -0.85919320000000    0.96260262000000    1.41875220000000
C         -0.94832146000000    1.33332289000000    2.79540097000000
C          0.12323372000000    2.35003474000000    3.16348059000000
O          0.68865701000000   -0.59815532000000    1.89883706000000
N         -0.71863115000000    0.35881517000000   -1.22115858000000
O         -0.43971429000000   -0.16108108000000   -2.42692949000000
H          0.07680749000000   -2.32220230000000   -4.01949656000000
H          1.36429418000000   -1.14018017000000   -4.23109875000000
H          1.66069653000000   -2.60191879000000   -3.26881735000000
H          1.50168323000000   -1.93833332000000   -0.52659485000000
H         -0.84592448000000    0.43514943000000    3.41376754000000
H         -1.94828918000000    1.75559260000000    2.91016803000000
H          0.00000100000000    2.65044761000000    4.20010781000000
H          1.11020406000000    1.91060770000000    3.03937855000000
H          0.04369234000000    3.22652502000000    2.52518745000000
