14
Standard file
C          0.00000100000000    0.00000100000000    0.78481772000000
C          0.00000077000000   -1.19977821000000    1.46686499000000
O          0.00000444000000   -2.20021866000000    0.59226353000000
N         -0.00000253000000   -1.73849329000000   -0.67140644000000
C          0.00000016000000   -0.41777731000000   -0.59331533000000
C          0.00000021000000    0.54280391000000   -1.62702542000000
C          0.00000074000000    1.85592343000000   -1.26636673000000
C          0.00000174000000    2.26856118000000    0.09099191000000
C          0.00000218000000    1.37139855000000    1.11504505000000
H          0.00000193000000   -1.45260683000000    2.50816896000000
H         -0.00000189000000    0.22295045000000   -2.65592769000000
H         -0.00000113000000    2.62092735000000   -2.02892318000000
H          0.00000100000000    3.32754599000000    0.30259365000000
H          0.00000246000000    1.68026099000000    2.14894681000000
