11
Standard file
C         -0.00001435000000    2.18288334000000   -0.05502976000000
C         -0.00000355000000    0.69843900000000   -0.05156821000000
N          0.00000100000000    0.00000100000000    1.05429398000000
O          0.00000939000000   -1.30862641000000    0.71445037000000
C          0.00001095000000   -1.41437769000000   -0.61629437000000
C          0.00000300000000   -0.17344970000000   -1.17440068000000
H          0.87894231000000    2.55634165000000    0.46628103000000
H         -0.87899590000000    2.55632858000000    0.46624872000000
H          0.00000100000000    2.55720120000000   -1.07502893000000
H          0.00001780000000   -2.40324420000000   -1.02948620000000
H          0.00000185000000    0.09112622000000   -2.21047296000000
