14
Standard file
O          0.00000223000000   -0.90586823000000    1.82957875000000
C          0.00000100000000    0.00000100000000    1.04086937000000
O          0.00000075000000    1.29678060000000    1.37523184000000
C          0.00000264000000    1.56854437000000    2.77218579000000
C          0.00000037000000   -0.14830847000000   -0.42855434000000
C         -0.00000096000000    0.78518893000000   -1.43806057000000
C          0.00000028000000   -0.00286724000000   -2.60610623000000
N         -0.00000010000000   -1.27361793000000   -2.30273274000000
O          0.00000211000000   -1.37607000000000   -0.96922015000000
H          0.00000100000000    2.65073539000000    2.86964618000000
H         -0.88754403000000    1.13912103000000    3.24096745000000
H          0.88755239000000    1.13912406000000    3.24096439000000
H         -0.00000226000000    1.84983705000000   -1.34590789000000
H         -0.00000029000000    0.31076532000000   -3.63013367000000
