15
Standard file
Br        -0.60570218000000   -2.78023617000000    1.28223458000000
C         -0.24343366000000   -1.08794579000000    0.50242230000000
C          0.00000100000000    0.00000100000000    1.32623737000000
C          0.26177794000000    1.23259555000000    0.75707669000000
C          0.27277551000000    1.36318104000000   -0.62618008000000
C          0.58726614000000    2.69770037000000   -1.24411884000000
F          0.20378082000000    3.72722005000000   -0.47627653000000
F          1.90942217000000    2.85451793000000   -1.45030479000000
F          0.00000100000000    2.86736656000000   -2.43696567000000
C          0.03272883000000    0.26678990000000   -1.44525003000000
C         -0.22928942000000   -0.96682106000000   -0.87840649000000
H         -0.01470287000000   -0.11546083000000    2.39868721000000
H          0.45126901000000    2.09087461000000    1.38306527000000
H          0.04551437000000    0.37997308000000   -2.51830058000000
H         -0.42038823000000   -1.82606616000000   -1.50200524000000
