15
Standard file
Cl         0.00000100000000    3.75152242000000   -0.10889213000000
C          0.00622998000000    2.03053222000000   -0.05886339000000
C         -0.00657986000000    1.38177378000000    1.16817102000000
C          0.00000100000000    0.00000100000000    1.20742198000000
C          0.02355033000000   -0.72311541000000    0.02127850000000
C          0.00040975000000   -2.22568837000000    0.06461044000000
F          0.58846270000000   -2.72292588000000    1.16224299000000
F         -1.25746055000000   -2.70998445000000    0.06263059000000
F          0.61588340000000   -2.78534440000000   -0.98696741000000
C          0.03127993000000   -0.07001548000000   -1.20501056000000
C          0.02472381000000    1.31170390000000   -1.24613225000000
H         -0.02176511000000    1.95419125000000    2.08179639000000
H         -0.00738251000000   -0.51724852000000    2.15447887000000
H          0.04804305000000   -0.64131416000000   -2.12035456000000
H          0.03364220000000    1.83016819000000   -2.19149937000000
