11
Standard file
Br         0.00000105000000   -1.24809585000000   -1.05137235000000
C         -0.00000194000000    0.22236495000000    0.15624045000000
C          0.00000100000000    0.00000100000000    1.52722438000000
N          0.00000512000000    0.99081379000000    2.39560031000000
C          0.00000412000000    2.23477599000000    1.94819798000000
C         -0.00000052000000    2.55542422000000    0.59798329000000
C         -0.00000229000000    1.52217592000000   -0.32503544000000
H          0.00000895000000   -1.00180747000000    1.93444297000000
H          0.00000100000000    3.00350522000000    2.70851415000000
H         -0.00000510000000    3.58363045000000    0.27142635000000
H         -0.00000610000000    1.71714491000000   -1.38704006000000
