18
Standard file
I          0.35299076000000   -1.61232621000000   -1.10608722000000
C         -0.12295421000000    0.07730071000000    0.08263129000000
C         -0.55411296000000    1.24021242000000   -0.52748680000000
C         -0.86504135000000    2.33763238000000    0.25503083000000
C         -0.75284477000000    2.28619208000000    1.63881561000000
C         -1.04859568000000    3.49571583000000    2.47721277000000
C          0.21342203000000    4.34273907000000    2.65419590000000
C         -0.31470651000000    1.10587835000000    2.22617345000000
C          0.00000100000000    0.00000100000000    1.45719034000000
H         -0.64896969000000    1.29425425000000   -1.60127451000000
H         -1.20349378000000    3.24659840000000   -0.22094590000000
H         -1.41475232000000    3.18574011000000    3.45788876000000
H         -1.82242143000000    4.09826342000000    1.99761823000000
H          0.58728382000000    4.67241093000000    1.68741025000000
H          0.00000100000000    5.21907482000000    3.26140061000000
H          0.99353378000000    3.76306456000000    3.14259502000000
H         -0.22024024000000    1.04588904000000    3.30078991000000
H          0.33637627000000   -0.91113681000000    1.92795347000000
