33
Standard file
C         -0.35659474000000    2.43126971000000    0.33892974000000
C         -0.49277742000000    1.28290829000000    1.34787376000000
C         -1.95530996000000    1.13729785000000    1.79252979000000
C          0.35777197000000    1.62016559000000    2.58631855000000
N          0.00000100000000    0.00000100000000    0.91652941000000
C          0.21010471000000   -0.45334568000000   -0.24363548000000
N          1.00272027000000   -1.59110697000000   -0.34877224000000
C          0.53975484000000   -2.69834023000000   -1.15593322000000
C          1.68613515000000   -2.02119364000000    0.84912570000000
N         -0.16016543000000    0.13308004000000   -1.46826603000000
C          0.75422451000000    0.08778172000000   -2.58278862000000
C         -1.55035850000000    0.15113626000000   -1.84485570000000
H         -0.55554443000000    3.37616796000000    0.84116111000000
H         -1.05391614000000    2.32719545000000   -0.48521222000000
H          0.65446131000000    2.45510325000000   -0.06199711000000
H         -2.28726054000000    2.04662839000000    2.28785816000000
H         -2.04588018000000    0.30434832000000    2.48496238000000
H         -2.60786548000000    0.95190363000000    0.94265614000000
H          0.30861555000000    0.79936235000000    3.29609828000000
H          1.39596124000000    1.76086253000000    2.29543807000000
H          0.00000100000000    2.52853814000000    3.06456866000000
H         -0.09595395000000   -2.35164333000000   -1.96383636000000
H         -0.03572020000000   -3.41301766000000   -0.55268179000000
H          1.39785551000000   -3.22206044000000   -1.58393327000000
H          2.50934691000000   -2.67762442000000    0.56334158000000
H          2.07064511000000   -1.14464311000000    1.36231923000000
H          1.02153915000000   -2.55669588000000    1.53599028000000
H          0.51961842000000   -0.70090986000000   -3.31073651000000
H          1.76435149000000   -0.06497540000000   -2.21278016000000
H          0.71026489000000    1.04753283000000   -3.10680273000000
H         -1.77618601000000    1.06380644000000   -2.40461596000000
H         -1.81414216000000   -0.70683078000000   -2.48374578000000
H         -2.17149865000000    0.11511351000000   -0.95362617000000
