75
Standard file
C         -3.36463952000000    0.32828531000000   -1.04008051000000
C         -2.50938272000000    0.65914049000000    0.18183987000000
C         -3.29515297000000    1.52527430000000    1.17105975000000
C         -1.22371035000000    1.36628114000000   -0.17317349000000
C         -1.24176457000000    2.39027327000000   -1.10822263000000
C         -0.11752694000000    3.15093540000000   -1.37903255000000
C         -0.16352589000000    4.25165152000000   -2.41056798000000
C          0.83311039000000    3.98104891000000   -3.53927102000000
C          0.10316053000000    5.61409435000000   -1.76706569000000
C          1.03300231000000    2.89327189000000   -0.65234975000000
C          1.09177946000000    1.88409090000000    0.29692518000000
C          2.36440993000000    1.73963330000000    1.10646364000000
C          3.63040087000000    1.79356606000000    0.24294121000000
C          2.43829437000000    2.85790454000000    2.15302274000000
C         -0.03804925000000    1.08045183000000    0.51301646000000
C          0.00000100000000    0.00000100000000    1.53300982000000
C          0.01418560000000   -1.36747882000000    1.21131157000000
P         -0.29268930000000   -1.86792284000000   -0.54398704000000
C          1.45956461000000   -2.44598871000000   -1.04637701000000
C          1.39237042000000   -3.09962524000000   -2.42596394000000
C          2.22769001000000   -3.32908590000000   -0.06761691000000
C          2.21217300000000   -1.12001725000000   -1.18083577000000
C         -1.42711259000000   -3.42524821000000   -0.41203274000000
C         -2.07713080000000   -3.49377807000000   -1.80156080000000
C         -2.53403148000000   -3.13456104000000    0.60448211000000
C         -0.82340536000000   -4.79523631000000   -0.10637237000000
C          0.14994628000000   -2.29100961000000    2.24407466000000
C          0.22893026000000   -1.89630434000000    3.56680581000000
C          0.14409379000000   -0.55325585000000    3.88619240000000
C          0.03674996000000    0.37863317000000    2.87180564000000
H         -2.75795612000000   -0.16126771000000   -1.79866253000000
H         -4.17867414000000   -0.33724615000000   -0.75817543000000
H         -3.80582761000000    1.22328128000000   -1.47106296000000
H         -2.25634127000000   -0.27670815000000    0.68671488000000
H         -2.71075048000000    1.69530523000000    2.07272649000000
H         -3.53165535000000    2.49028351000000    0.72744735000000
H         -4.22482685000000    1.03311693000000    1.44957101000000
H         -2.15816018000000    2.61364760000000   -1.63308778000000
H         -1.17041576000000    4.27131517000000   -2.84311270000000
H          0.63224193000000    3.01482951000000   -3.99691396000000
H          0.75493607000000    4.75056785000000   -4.30464768000000
H          1.85249512000000    3.97519423000000   -3.16128563000000
H          0.00000100000000    6.40725044000000   -2.50474323000000
H         -0.60372721000000    5.79651371000000   -0.96039829000000
H          1.10911351000000    5.65755454000000   -1.35697101000000
H          1.90716901000000    3.50211944000000   -0.82008789000000
H          2.34322210000000    0.78027799000000    1.63386968000000
H          3.51994000000000    1.20144993000000   -0.66050070000000
H          4.47796695000000    1.41024034000000    0.80764014000000
H          3.86129141000000    2.81632464000000   -0.04518858000000
H          1.59505403000000    2.81665853000000    2.83642154000000
H          3.35463573000000    2.76702331000000    2.73291074000000
H          2.43106465000000    3.83079329000000    1.66615384000000
H          2.39778351000000   -3.20403257000000   -2.83447541000000
H          0.81174920000000   -2.48115760000000   -3.10911612000000
H          0.94645412000000   -4.08999616000000   -2.38792756000000
H          1.76974343000000   -4.30393458000000    0.06127924000000
H          3.23682717000000   -3.48437729000000   -0.45158322000000
H          2.31214522000000   -2.84848828000000    0.90469981000000
H          1.68018146000000   -0.43589477000000   -1.84152328000000
H          3.21075900000000   -1.28698441000000   -1.58458325000000
H          2.30685935000000   -0.65137926000000   -0.20608730000000
H         -2.54929139000000   -2.54505988000000   -2.04925867000000
H         -1.34346740000000   -3.71906092000000   -2.57135453000000
H         -2.84165149000000   -4.27007396000000   -1.82350939000000
H         -2.14376469000000   -3.03024294000000    1.61428600000000
H         -3.25545731000000   -3.95202051000000    0.60284060000000
H         -3.06434256000000   -2.22263241000000    0.34293227000000
H         -0.07417671000000   -5.07892405000000   -0.83968110000000
H         -1.61921501000000   -5.54094622000000   -0.14856270000000
H         -0.38488259000000   -4.84909015000000    0.88590265000000
H          0.19700890000000   -3.34291328000000    2.01448920000000
H          0.33888021000000   -2.63789456000000    4.34525818000000
H          0.16737629000000   -0.23259015000000    4.91752424000000
H         -0.03334068000000    1.42888817000000    3.11533709000000
